
---------- Begin Simulation Statistics ----------
simSeconds                                   0.027256                       # Number of seconds simulated (Second)
simTicks                                  27256328500                       # Number of ticks simulated (Tick)
finalTick                                 27256328500                       # Number of ticks from beginning of simulation (restored from checkpoints and never reset) (Tick)
simFreq                                  1000000000000                       # The number of ticks per simulated second ((Tick/Second))
hostSeconds                                    246.54                       # Real time elapsed on the host (Second)
hostTickRate                                110557262                       # The number of ticks simulated per host second (ticks/s) ((Tick/Second))
hostMemory                                     681512                       # Number of bytes of host memory used (Byte)
simInsts                                    108505124                       # Number of instructions simulated (Count)
simOps                                      115749743                       # Number of ops (including micro ops) simulated (Count)
hostInstRate                                   440119                       # Simulator instruction rate (inst/s) ((Count/Second))
hostOpRate                                     469505                       # Simulator op (including micro ops) rate (op/s) ((Count/Second))
system.clk_domain.clock                          1000                       # Clock period in ticks (Tick)
system.cpu.numCycles                         54512658                       # Number of cpu cycles simulated (Cycle)
system.cpu.numWorkItemsStarted                      0                       # Number of work items this cpu started (Count)
system.cpu.numWorkItemsCompleted                    0                       # Number of work items this cpu completed (Count)
system.cpu.instsAdded                       122584208                       # Number of instructions added to the IQ (excludes non-spec) (Count)
system.cpu.nonSpecInstsAdded                    78991                       # Number of non-speculative instructions added to the IQ (Count)
system.cpu.instsIssued                      122120190                       # Number of instructions issued (Count)
system.cpu.squashedInstsIssued                 160544                       # Number of squashed instructions issued (Count)
system.cpu.squashedInstsExamined              6913455                       # Number of squashed instructions iterated over during squash; mainly for profiling (Count)
system.cpu.squashedOperandsExamined           4928095                       # Number of squashed operands that are examined and possibly removed from graph (Count)
system.cpu.squashedNonSpecRemoved                 167                       # Number of squashed non-spec instructions that were removed (Count)
system.cpu.numIssuedDist::samples            51698095                       # Number of insts issued each cycle (Count)
system.cpu.numIssuedDist::mean               2.362180                       # Number of insts issued each cycle (Count)
system.cpu.numIssuedDist::stdev              1.995733                       # Number of insts issued each cycle (Count)
system.cpu.numIssuedDist::underflows                0      0.00%      0.00% # Number of insts issued each cycle (Count)
system.cpu.numIssuedDist::0                  14041007     27.16%     27.16% # Number of insts issued each cycle (Count)
system.cpu.numIssuedDist::1                   4762472      9.21%     36.37% # Number of insts issued each cycle (Count)
system.cpu.numIssuedDist::2                   9954692     19.26%     55.63% # Number of insts issued each cycle (Count)
system.cpu.numIssuedDist::3                   7527051     14.56%     70.19% # Number of insts issued each cycle (Count)
system.cpu.numIssuedDist::4                   7878341     15.24%     85.43% # Number of insts issued each cycle (Count)
system.cpu.numIssuedDist::5                   3833231      7.41%     92.84% # Number of insts issued each cycle (Count)
system.cpu.numIssuedDist::6                   2314843      4.48%     97.32% # Number of insts issued each cycle (Count)
system.cpu.numIssuedDist::7                    793060      1.53%     98.85% # Number of insts issued each cycle (Count)
system.cpu.numIssuedDist::8                    593398      1.15%    100.00% # Number of insts issued each cycle (Count)
system.cpu.numIssuedDist::overflows                 0      0.00%    100.00% # Number of insts issued each cycle (Count)
system.cpu.numIssuedDist::min_value                 0                       # Number of insts issued each cycle (Count)
system.cpu.numIssuedDist::max_value                 8                       # Number of insts issued each cycle (Count)
system.cpu.numIssuedDist::total              51698095                       # Number of insts issued each cycle (Count)
system.cpu.statFuBusy::No_OpClass                   0      0.00%      0.00% # attempts to use FU when none available (Count)
system.cpu.statFuBusy::IntAlu                  232175     16.05%     16.05% # attempts to use FU when none available (Count)
system.cpu.statFuBusy::IntMult                 193978     13.41%     29.47% # attempts to use FU when none available (Count)
system.cpu.statFuBusy::IntDiv                       0      0.00%     29.47% # attempts to use FU when none available (Count)
system.cpu.statFuBusy::FloatAdd                     0      0.00%     29.47% # attempts to use FU when none available (Count)
system.cpu.statFuBusy::FloatCmp                     0      0.00%     29.47% # attempts to use FU when none available (Count)
system.cpu.statFuBusy::FloatCvt                     0      0.00%     29.47% # attempts to use FU when none available (Count)
system.cpu.statFuBusy::FloatMult                    0      0.00%     29.47% # attempts to use FU when none available (Count)
system.cpu.statFuBusy::FloatMultAcc                 0      0.00%     29.47% # attempts to use FU when none available (Count)
system.cpu.statFuBusy::FloatDiv                     0      0.00%     29.47% # attempts to use FU when none available (Count)
system.cpu.statFuBusy::FloatMisc                    0      0.00%     29.47% # attempts to use FU when none available (Count)
system.cpu.statFuBusy::FloatSqrt                    0      0.00%     29.47% # attempts to use FU when none available (Count)
system.cpu.statFuBusy::SimdAdd                      0      0.00%     29.47% # attempts to use FU when none available (Count)
system.cpu.statFuBusy::SimdAddAcc                   0      0.00%     29.47% # attempts to use FU when none available (Count)
system.cpu.statFuBusy::SimdAlu                      1      0.00%     29.47% # attempts to use FU when none available (Count)
system.cpu.statFuBusy::SimdCmp                      4      0.00%     29.47% # attempts to use FU when none available (Count)
system.cpu.statFuBusy::SimdCvt                      0      0.00%     29.47% # attempts to use FU when none available (Count)
system.cpu.statFuBusy::SimdMisc                     0      0.00%     29.47% # attempts to use FU when none available (Count)
system.cpu.statFuBusy::SimdMult                     0      0.00%     29.47% # attempts to use FU when none available (Count)
system.cpu.statFuBusy::SimdMultAcc                  0      0.00%     29.47% # attempts to use FU when none available (Count)
system.cpu.statFuBusy::SimdShift                    0      0.00%     29.47% # attempts to use FU when none available (Count)
system.cpu.statFuBusy::SimdShiftAcc                 0      0.00%     29.47% # attempts to use FU when none available (Count)
system.cpu.statFuBusy::SimdDiv                      0      0.00%     29.47% # attempts to use FU when none available (Count)
system.cpu.statFuBusy::SimdSqrt                     0      0.00%     29.47% # attempts to use FU when none available (Count)
system.cpu.statFuBusy::SimdFloatAdd                 0      0.00%     29.47% # attempts to use FU when none available (Count)
system.cpu.statFuBusy::SimdFloatAlu                 0      0.00%     29.47% # attempts to use FU when none available (Count)
system.cpu.statFuBusy::SimdFloatCmp                 0      0.00%     29.47% # attempts to use FU when none available (Count)
system.cpu.statFuBusy::SimdFloatCvt                 0      0.00%     29.47% # attempts to use FU when none available (Count)
system.cpu.statFuBusy::SimdFloatDiv                 0      0.00%     29.47% # attempts to use FU when none available (Count)
system.cpu.statFuBusy::SimdFloatMisc                0      0.00%     29.47% # attempts to use FU when none available (Count)
system.cpu.statFuBusy::SimdFloatMult                0      0.00%     29.47% # attempts to use FU when none available (Count)
system.cpu.statFuBusy::SimdFloatMultAcc             0      0.00%     29.47% # attempts to use FU when none available (Count)
system.cpu.statFuBusy::SimdFloatSqrt                0      0.00%     29.47% # attempts to use FU when none available (Count)
system.cpu.statFuBusy::SimdReduceAdd                0      0.00%     29.47% # attempts to use FU when none available (Count)
system.cpu.statFuBusy::SimdReduceAlu                0      0.00%     29.47% # attempts to use FU when none available (Count)
system.cpu.statFuBusy::SimdReduceCmp                0      0.00%     29.47% # attempts to use FU when none available (Count)
system.cpu.statFuBusy::SimdFloatReduceAdd            0      0.00%     29.47% # attempts to use FU when none available (Count)
system.cpu.statFuBusy::SimdFloatReduceCmp            0      0.00%     29.47% # attempts to use FU when none available (Count)
system.cpu.statFuBusy::SimdAes                      0      0.00%     29.47% # attempts to use FU when none available (Count)
system.cpu.statFuBusy::SimdAesMix                   0      0.00%     29.47% # attempts to use FU when none available (Count)
system.cpu.statFuBusy::SimdSha1Hash                 0      0.00%     29.47% # attempts to use FU when none available (Count)
system.cpu.statFuBusy::SimdSha1Hash2                0      0.00%     29.47% # attempts to use FU when none available (Count)
system.cpu.statFuBusy::SimdSha256Hash               0      0.00%     29.47% # attempts to use FU when none available (Count)
system.cpu.statFuBusy::SimdSha256Hash2              0      0.00%     29.47% # attempts to use FU when none available (Count)
system.cpu.statFuBusy::SimdShaSigma2                0      0.00%     29.47% # attempts to use FU when none available (Count)
system.cpu.statFuBusy::SimdShaSigma3                0      0.00%     29.47% # attempts to use FU when none available (Count)
system.cpu.statFuBusy::SimdPredAlu                  0      0.00%     29.47% # attempts to use FU when none available (Count)
system.cpu.statFuBusy::MemRead                 572262     39.57%     69.04% # attempts to use FU when none available (Count)
system.cpu.statFuBusy::MemWrite                447777     30.96%    100.00% # attempts to use FU when none available (Count)
system.cpu.statFuBusy::FloatMemRead                 0      0.00%    100.00% # attempts to use FU when none available (Count)
system.cpu.statFuBusy::FloatMemWrite                0      0.00%    100.00% # attempts to use FU when none available (Count)
system.cpu.statFuBusy::IprAccess                    0      0.00%    100.00% # attempts to use FU when none available (Count)
system.cpu.statFuBusy::InstPrefetch                 0      0.00%    100.00% # attempts to use FU when none available (Count)
system.cpu.statIssuedInstType_0::No_OpClass        72165      0.06%      0.06% # Number of instructions issued per FU type, per thread (Count)
system.cpu.statIssuedInstType_0::IntAlu      76950602     63.01%     63.07% # Number of instructions issued per FU type, per thread (Count)
system.cpu.statIssuedInstType_0::IntMult      1263584      1.03%     64.11% # Number of instructions issued per FU type, per thread (Count)
system.cpu.statIssuedInstType_0::IntDiv        236769      0.19%     64.30% # Number of instructions issued per FU type, per thread (Count)
system.cpu.statIssuedInstType_0::FloatAdd        24224      0.02%     64.32% # Number of instructions issued per FU type, per thread (Count)
system.cpu.statIssuedInstType_0::FloatCmp        32768      0.03%     64.35% # Number of instructions issued per FU type, per thread (Count)
system.cpu.statIssuedInstType_0::FloatCvt            0      0.00%     64.35% # Number of instructions issued per FU type, per thread (Count)
system.cpu.statIssuedInstType_0::FloatMult        21125      0.02%     64.36% # Number of instructions issued per FU type, per thread (Count)
system.cpu.statIssuedInstType_0::FloatMultAcc            0      0.00%     64.36% # Number of instructions issued per FU type, per thread (Count)
system.cpu.statIssuedInstType_0::FloatDiv            0      0.00%     64.36% # Number of instructions issued per FU type, per thread (Count)
system.cpu.statIssuedInstType_0::FloatMisc        62234      0.05%     64.41% # Number of instructions issued per FU type, per thread (Count)
system.cpu.statIssuedInstType_0::FloatSqrt            0      0.00%     64.41% # Number of instructions issued per FU type, per thread (Count)
system.cpu.statIssuedInstType_0::SimdAdd        65568      0.05%     64.47% # Number of instructions issued per FU type, per thread (Count)
system.cpu.statIssuedInstType_0::SimdAddAcc            0      0.00%     64.47% # Number of instructions issued per FU type, per thread (Count)
system.cpu.statIssuedInstType_0::SimdAlu       131118      0.11%     64.58% # Number of instructions issued per FU type, per thread (Count)
system.cpu.statIssuedInstType_0::SimdCmp       131108      0.11%     64.68% # Number of instructions issued per FU type, per thread (Count)
system.cpu.statIssuedInstType_0::SimdCvt            0      0.00%     64.68% # Number of instructions issued per FU type, per thread (Count)
system.cpu.statIssuedInstType_0::SimdMisc        98335      0.08%     64.76% # Number of instructions issued per FU type, per thread (Count)
system.cpu.statIssuedInstType_0::SimdMult            0      0.00%     64.76% # Number of instructions issued per FU type, per thread (Count)
system.cpu.statIssuedInstType_0::SimdMultAcc            0      0.00%     64.76% # Number of instructions issued per FU type, per thread (Count)
system.cpu.statIssuedInstType_0::SimdShift            0      0.00%     64.76% # Number of instructions issued per FU type, per thread (Count)
system.cpu.statIssuedInstType_0::SimdShiftAcc            0      0.00%     64.76% # Number of instructions issued per FU type, per thread (Count)
system.cpu.statIssuedInstType_0::SimdDiv            0      0.00%     64.76% # Number of instructions issued per FU type, per thread (Count)
system.cpu.statIssuedInstType_0::SimdSqrt            0      0.00%     64.76% # Number of instructions issued per FU type, per thread (Count)
system.cpu.statIssuedInstType_0::SimdFloatAdd            0      0.00%     64.76% # Number of instructions issued per FU type, per thread (Count)
system.cpu.statIssuedInstType_0::SimdFloatAlu            0      0.00%     64.76% # Number of instructions issued per FU type, per thread (Count)
system.cpu.statIssuedInstType_0::SimdFloatCmp            0      0.00%     64.76% # Number of instructions issued per FU type, per thread (Count)
system.cpu.statIssuedInstType_0::SimdFloatCvt            0      0.00%     64.76% # Number of instructions issued per FU type, per thread (Count)
system.cpu.statIssuedInstType_0::SimdFloatDiv            0      0.00%     64.76% # Number of instructions issued per FU type, per thread (Count)
system.cpu.statIssuedInstType_0::SimdFloatMisc            0      0.00%     64.76% # Number of instructions issued per FU type, per thread (Count)
system.cpu.statIssuedInstType_0::SimdFloatMult            0      0.00%     64.76% # Number of instructions issued per FU type, per thread (Count)
system.cpu.statIssuedInstType_0::SimdFloatMultAcc            0      0.00%     64.76% # Number of instructions issued per FU type, per thread (Count)
system.cpu.statIssuedInstType_0::SimdFloatSqrt            0      0.00%     64.76% # Number of instructions issued per FU type, per thread (Count)
system.cpu.statIssuedInstType_0::SimdReduceAdd            0      0.00%     64.76% # Number of instructions issued per FU type, per thread (Count)
system.cpu.statIssuedInstType_0::SimdReduceAlu            0      0.00%     64.76% # Number of instructions issued per FU type, per thread (Count)
system.cpu.statIssuedInstType_0::SimdReduceCmp            0      0.00%     64.76% # Number of instructions issued per FU type, per thread (Count)
system.cpu.statIssuedInstType_0::SimdFloatReduceAdd            0      0.00%     64.76% # Number of instructions issued per FU type, per thread (Count)
system.cpu.statIssuedInstType_0::SimdFloatReduceCmp            0      0.00%     64.76% # Number of instructions issued per FU type, per thread (Count)
system.cpu.statIssuedInstType_0::SimdAes            0      0.00%     64.76% # Number of instructions issued per FU type, per thread (Count)
system.cpu.statIssuedInstType_0::SimdAesMix            0      0.00%     64.76% # Number of instructions issued per FU type, per thread (Count)
system.cpu.statIssuedInstType_0::SimdSha1Hash            0      0.00%     64.76% # Number of instructions issued per FU type, per thread (Count)
system.cpu.statIssuedInstType_0::SimdSha1Hash2            0      0.00%     64.76% # Number of instructions issued per FU type, per thread (Count)
system.cpu.statIssuedInstType_0::SimdSha256Hash            0      0.00%     64.76% # Number of instructions issued per FU type, per thread (Count)
system.cpu.statIssuedInstType_0::SimdSha256Hash2            0      0.00%     64.76% # Number of instructions issued per FU type, per thread (Count)
system.cpu.statIssuedInstType_0::SimdShaSigma2            0      0.00%     64.76% # Number of instructions issued per FU type, per thread (Count)
system.cpu.statIssuedInstType_0::SimdShaSigma3            0      0.00%     64.76% # Number of instructions issued per FU type, per thread (Count)
system.cpu.statIssuedInstType_0::SimdPredAlu            0      0.00%     64.76% # Number of instructions issued per FU type, per thread (Count)
system.cpu.statIssuedInstType_0::MemRead     31290194     25.62%     90.39% # Number of instructions issued per FU type, per thread (Count)
system.cpu.statIssuedInstType_0::MemWrite     11740396      9.61%    100.00% # Number of instructions issued per FU type, per thread (Count)
system.cpu.statIssuedInstType_0::FloatMemRead            0      0.00%    100.00% # Number of instructions issued per FU type, per thread (Count)
system.cpu.statIssuedInstType_0::FloatMemWrite            0      0.00%    100.00% # Number of instructions issued per FU type, per thread (Count)
system.cpu.statIssuedInstType_0::IprAccess            0      0.00%    100.00% # Number of instructions issued per FU type, per thread (Count)
system.cpu.statIssuedInstType_0::InstPrefetch            0      0.00%    100.00% # Number of instructions issued per FU type, per thread (Count)
system.cpu.statIssuedInstType_0::total      122120190                       # Number of instructions issued per FU type, per thread (Count)
system.cpu.issueRate                         2.240217                       # Inst issue rate ((Count/Cycle))
system.cpu.fuBusy                             1446197                       # FU busy when requested (Count)
system.cpu.fuBusyRate                        0.011842                       # FU busy rate (busy events/executed inst) ((Count/Count))
system.cpu.intInstQueueReads                294691251                       # Number of integer instruction queue reads (Count)
system.cpu.intInstQueueWrites               127823282                       # Number of integer instruction queue writes (Count)
system.cpu.intInstQueueWakeupAccesses       118593067                       # Number of integer instruction queue wakeup accesses (Count)
system.cpu.fpInstQueueReads                         0                       # Number of floating instruction queue reads (Count)
system.cpu.fpInstQueueWrites                        0                       # Number of floating instruction queue writes (Count)
system.cpu.fpInstQueueWakeupAccesses                0                       # Number of floating instruction queue wakeup accesses (Count)
system.cpu.vecInstQueueReads                  2853965                       # Number of vector instruction queue reads (Count)
system.cpu.vecInstQueueWrites                 1783567                       # Number of vector instruction queue writes (Count)
system.cpu.vecInstQueueWakeupAccesses         1253649                       # Number of vector instruction queue wakeup accesses (Count)
system.cpu.intAluAccesses                   122093779                       # Number of integer alu accesses (Count)
system.cpu.fpAluAccesses                            0                       # Number of floating point alu accesses (Count)
system.cpu.vecAluAccesses                     1400443                       # Number of vector alu accesses (Count)
system.cpu.numInsts                         121506023                       # Number of executed instructions (Count)
system.cpu.numLoadInsts                      31129136                       # Number of load instructions executed (Count)
system.cpu.numSquashedInsts                    614167                       # Number of squashed instructions skipped in execute (Count)
system.cpu.numSwp                                   0                       # Number of swp insts executed (Count)
system.cpu.numNop                               58490                       # Number of nop insts executed (Count)
system.cpu.numRefs                           42725874                       # Number of memory reference insts executed (Count)
system.cpu.numBranches                       18972238                       # Number of branches executed (Count)
system.cpu.numStoreInsts                     11596738                       # Number of stores executed (Count)
system.cpu.numRate                           2.228951                       # Inst execution rate ((Count/Cycle))
system.cpu.timesIdled                          140496                       # Number of times that the entire CPU went into an idle state and unscheduled itself (Count)
system.cpu.idleCycles                         2814563                       # Total number of cycles that the CPU has spent unscheduled due to idling (Cycle)
system.cpu.committedInsts                   108505124                       # Number of Instructions Simulated (Count)
system.cpu.committedOps                     115749743                       # Number of Ops (including micro ops) Simulated (Count)
system.cpu.cpi                               0.502397                       # CPI: Cycles Per Instruction ((Cycle/Count))
system.cpu.totalCpi                          0.502397                       # CPI: Total CPI of All Threads ((Cycle/Count))
system.cpu.ipc                               1.990457                       # IPC: Instructions Per Cycle ((Count/Cycle))
system.cpu.totalIpc                          1.990457                       # IPC: Total IPC of All Threads ((Count/Cycle))
system.cpu.intRegfileReads                  142493105                       # Number of integer regfile reads (Count)
system.cpu.intRegfileWrites                  91777205                       # Number of integer regfile writes (Count)
system.cpu.vecRegfileReads                    1389085                       # number of vector regfile reads (Count)
system.cpu.vecRegfileWrites                    726792                       # number of vector regfile writes (Count)
system.cpu.ccRegfileReads                    34713414                       # number of cc regfile reads (Count)
system.cpu.ccRegfileWrites                   34515044                       # number of cc regfile writes (Count)
system.cpu.miscRegfileReads                 235048857                       # number of misc regfile reads (Count)
system.cpu.miscRegfileWrites                   173121                       # number of misc regfile writes (Count)
system.cpu.MemDepUnit__0.insertedLoads       30157425                       # Number of loads inserted to the mem dependence unit. (Count)
system.cpu.MemDepUnit__0.insertedStores      12217633                       # Number of stores inserted to the mem dependence unit. (Count)
system.cpu.MemDepUnit__0.conflictingLoads      4687574                       # Number of conflicting loads. (Count)
system.cpu.MemDepUnit__0.conflictingStores       934842                       # Number of conflicting stores. (Count)
system.cpu.MemDepUnit__1.insertedLoads              0                       # Number of loads inserted to the mem dependence unit. (Count)
system.cpu.MemDepUnit__1.insertedStores             0                       # Number of stores inserted to the mem dependence unit. (Count)
system.cpu.MemDepUnit__1.conflictingLoads            0                       # Number of conflicting loads. (Count)
system.cpu.MemDepUnit__1.conflictingStores            0                       # Number of conflicting stores. (Count)
system.cpu.MemDepUnit__2.insertedLoads              0                       # Number of loads inserted to the mem dependence unit. (Count)
system.cpu.MemDepUnit__2.insertedStores             0                       # Number of stores inserted to the mem dependence unit. (Count)
system.cpu.MemDepUnit__2.conflictingLoads            0                       # Number of conflicting loads. (Count)
system.cpu.MemDepUnit__2.conflictingStores            0                       # Number of conflicting stores. (Count)
system.cpu.MemDepUnit__3.insertedLoads              0                       # Number of loads inserted to the mem dependence unit. (Count)
system.cpu.MemDepUnit__3.insertedStores             0                       # Number of stores inserted to the mem dependence unit. (Count)
system.cpu.MemDepUnit__3.conflictingLoads            0                       # Number of conflicting loads. (Count)
system.cpu.MemDepUnit__3.conflictingStores            0                       # Number of conflicting stores. (Count)
system.cpu.branchPred.lookups                20277483                       # Number of BP lookups (Count)
system.cpu.branchPred.condPredicted          14081601                       # Number of conditional branches predicted (Count)
system.cpu.branchPred.condIncorrect            267681                       # Number of conditional branches incorrect (Count)
system.cpu.branchPred.BTBLookups             11640217                       # Number of BTB lookups (Count)
system.cpu.branchPred.BTBHits                11534738                       # Number of BTB hits (Count)
system.cpu.branchPred.BTBHitRatio            0.990938                       # BTB Hit Ratio (Ratio)
system.cpu.branchPred.RASUsed                 1017462                       # Number of times the RAS was used to get a target. (Count)
system.cpu.branchPred.RASIncorrect                 27                       # Number of incorrect RAS predictions. (Count)
system.cpu.branchPred.indirectLookups          195261                       # Number of indirect predictor lookups. (Count)
system.cpu.branchPred.indirectHits             188341                       # Number of indirect target hits. (Count)
system.cpu.branchPred.indirectMisses             6920                       # Number of indirect misses. (Count)
system.cpu.branchPred.indirectMispredicted          201                       # Number of mispredicted indirect branches. (Count)
system.cpu.commit.commitSquashedInsts         6921426                       # The number of squashed insts skipped by commit (Count)
system.cpu.commit.commitNonSpecStalls           78824                       # The number of times commit has been forced to stall to communicate backwards (Count)
system.cpu.commit.branchMispredicts            218206                       # The number of times a branch was mispredicted (Count)
system.cpu.commit.numCommittedDist::samples     50712812                       # Number of insts commited each cycle (Count)
system.cpu.commit.numCommittedDist::mean     2.283452                       # Number of insts commited each cycle (Count)
system.cpu.commit.numCommittedDist::stdev     2.904292                       # Number of insts commited each cycle (Count)
system.cpu.commit.numCommittedDist::underflows            0      0.00%      0.00% # Number of insts commited each cycle (Count)
system.cpu.commit.numCommittedDist::0        21155428     41.72%     41.72% # Number of insts commited each cycle (Count)
system.cpu.commit.numCommittedDist::1        10364465     20.44%     62.15% # Number of insts commited each cycle (Count)
system.cpu.commit.numCommittedDist::2         3222676      6.35%     68.51% # Number of insts commited each cycle (Count)
system.cpu.commit.numCommittedDist::3         1520766      3.00%     71.51% # Number of insts commited each cycle (Count)
system.cpu.commit.numCommittedDist::4         3268943      6.45%     77.95% # Number of insts commited each cycle (Count)
system.cpu.commit.numCommittedDist::5          432414      0.85%     78.81% # Number of insts commited each cycle (Count)
system.cpu.commit.numCommittedDist::6         3083596      6.08%     84.89% # Number of insts commited each cycle (Count)
system.cpu.commit.numCommittedDist::7          627470      1.24%     86.12% # Number of insts commited each cycle (Count)
system.cpu.commit.numCommittedDist::8         7037054     13.88%    100.00% # Number of insts commited each cycle (Count)
system.cpu.commit.numCommittedDist::overflows            0      0.00%    100.00% # Number of insts commited each cycle (Count)
system.cpu.commit.numCommittedDist::min_value            0                       # Number of insts commited each cycle (Count)
system.cpu.commit.numCommittedDist::max_value            8                       # Number of insts commited each cycle (Count)
system.cpu.commit.numCommittedDist::total     50712812                       # Number of insts commited each cycle (Count)
system.cpu.commit.instsCommitted            108555636                       # Number of instructions committed (Count)
system.cpu.commit.opsCommitted              115800255                       # Number of ops (including micro ops) committed (Count)
system.cpu.commit.memRefs                    39871630                       # Number of memory references committed (Count)
system.cpu.commit.loads                      28956699                       # Number of loads committed (Count)
system.cpu.commit.amos                          39378                       # Number of atomic instructions committed (Count)
system.cpu.commit.membars                       39388                       # Number of memory barriers committed (Count)
system.cpu.commit.branches                   18396534                       # Number of branches committed (Count)
system.cpu.commit.vectorInstructions          1128641                       # Number of committed Vector instructions. (Count)
system.cpu.commit.floating                          0                       # Number of committed floating point instructions. (Count)
system.cpu.commit.integer                   101324928                       # Number of committed integer instructions. (Count)
system.cpu.commit.functionCalls                930262                       # Number of function calls committed. (Count)
system.cpu.commit.committedInstType_0::No_OpClass        72161      0.06%      0.06% # Class of committed instruction (Count)
system.cpu.commit.committedInstType_0::IntAlu     73794703     63.73%     63.79% # Class of committed instruction (Count)
system.cpu.commit.committedInstType_0::IntMult      1262249      1.09%     64.88% # Class of committed instruction (Count)
system.cpu.commit.committedInstType_0::IntDiv       236522      0.20%     65.08% # Class of committed instruction (Count)
system.cpu.commit.committedInstType_0::FloatAdd        24224      0.02%     65.10% # Class of committed instruction (Count)
system.cpu.commit.committedInstType_0::FloatCmp        32768      0.03%     65.13% # Class of committed instruction (Count)
system.cpu.commit.committedInstType_0::FloatCvt            0      0.00%     65.13% # Class of committed instruction (Count)
system.cpu.commit.committedInstType_0::FloatMult        20948      0.02%     65.15% # Class of committed instruction (Count)
system.cpu.commit.committedInstType_0::FloatMultAcc            0      0.00%     65.15% # Class of committed instruction (Count)
system.cpu.commit.committedInstType_0::FloatDiv            0      0.00%     65.15% # Class of committed instruction (Count)
system.cpu.commit.committedInstType_0::FloatMisc        58980      0.05%     65.20% # Class of committed instruction (Count)
system.cpu.commit.committedInstType_0::FloatSqrt            0      0.00%     65.20% # Class of committed instruction (Count)
system.cpu.commit.committedInstType_0::SimdAdd        65556      0.06%     65.26% # Class of committed instruction (Count)
system.cpu.commit.committedInstType_0::SimdAddAcc            0      0.00%     65.26% # Class of committed instruction (Count)
system.cpu.commit.committedInstType_0::SimdAlu       131098      0.11%     65.37% # Class of committed instruction (Count)
system.cpu.commit.committedInstType_0::SimdCmp       131092      0.11%     65.48% # Class of committed instruction (Count)
system.cpu.commit.committedInstType_0::SimdCvt            0      0.00%     65.48% # Class of committed instruction (Count)
system.cpu.commit.committedInstType_0::SimdMisc        98324      0.08%     65.57% # Class of committed instruction (Count)
system.cpu.commit.committedInstType_0::SimdMult            0      0.00%     65.57% # Class of committed instruction (Count)
system.cpu.commit.committedInstType_0::SimdMultAcc            0      0.00%     65.57% # Class of committed instruction (Count)
system.cpu.commit.committedInstType_0::SimdShift            0      0.00%     65.57% # Class of committed instruction (Count)
system.cpu.commit.committedInstType_0::SimdShiftAcc            0      0.00%     65.57% # Class of committed instruction (Count)
system.cpu.commit.committedInstType_0::SimdDiv            0      0.00%     65.57% # Class of committed instruction (Count)
system.cpu.commit.committedInstType_0::SimdSqrt            0      0.00%     65.57% # Class of committed instruction (Count)
system.cpu.commit.committedInstType_0::SimdFloatAdd            0      0.00%     65.57% # Class of committed instruction (Count)
system.cpu.commit.committedInstType_0::SimdFloatAlu            0      0.00%     65.57% # Class of committed instruction (Count)
system.cpu.commit.committedInstType_0::SimdFloatCmp            0      0.00%     65.57% # Class of committed instruction (Count)
system.cpu.commit.committedInstType_0::SimdFloatCvt            0      0.00%     65.57% # Class of committed instruction (Count)
system.cpu.commit.committedInstType_0::SimdFloatDiv            0      0.00%     65.57% # Class of committed instruction (Count)
system.cpu.commit.committedInstType_0::SimdFloatMisc            0      0.00%     65.57% # Class of committed instruction (Count)
system.cpu.commit.committedInstType_0::SimdFloatMult            0      0.00%     65.57% # Class of committed instruction (Count)
system.cpu.commit.committedInstType_0::SimdFloatMultAcc            0      0.00%     65.57% # Class of committed instruction (Count)
system.cpu.commit.committedInstType_0::SimdFloatSqrt            0      0.00%     65.57% # Class of committed instruction (Count)
system.cpu.commit.committedInstType_0::SimdReduceAdd            0      0.00%     65.57% # Class of committed instruction (Count)
system.cpu.commit.committedInstType_0::SimdReduceAlu            0      0.00%     65.57% # Class of committed instruction (Count)
system.cpu.commit.committedInstType_0::SimdReduceCmp            0      0.00%     65.57% # Class of committed instruction (Count)
system.cpu.commit.committedInstType_0::SimdFloatReduceAdd            0      0.00%     65.57% # Class of committed instruction (Count)
system.cpu.commit.committedInstType_0::SimdFloatReduceCmp            0      0.00%     65.57% # Class of committed instruction (Count)
system.cpu.commit.committedInstType_0::SimdAes            0      0.00%     65.57% # Class of committed instruction (Count)
system.cpu.commit.committedInstType_0::SimdAesMix            0      0.00%     65.57% # Class of committed instruction (Count)
system.cpu.commit.committedInstType_0::SimdSha1Hash            0      0.00%     65.57% # Class of committed instruction (Count)
system.cpu.commit.committedInstType_0::SimdSha1Hash2            0      0.00%     65.57% # Class of committed instruction (Count)
system.cpu.commit.committedInstType_0::SimdSha256Hash            0      0.00%     65.57% # Class of committed instruction (Count)
system.cpu.commit.committedInstType_0::SimdSha256Hash2            0      0.00%     65.57% # Class of committed instruction (Count)
system.cpu.commit.committedInstType_0::SimdShaSigma2            0      0.00%     65.57% # Class of committed instruction (Count)
system.cpu.commit.committedInstType_0::SimdShaSigma3            0      0.00%     65.57% # Class of committed instruction (Count)
system.cpu.commit.committedInstType_0::SimdPredAlu            0      0.00%     65.57% # Class of committed instruction (Count)
system.cpu.commit.committedInstType_0::MemRead     28956699     25.01%     90.57% # Class of committed instruction (Count)
system.cpu.commit.committedInstType_0::MemWrite     10914931      9.43%    100.00% # Class of committed instruction (Count)
system.cpu.commit.committedInstType_0::FloatMemRead            0      0.00%    100.00% # Class of committed instruction (Count)
system.cpu.commit.committedInstType_0::FloatMemWrite            0      0.00%    100.00% # Class of committed instruction (Count)
system.cpu.commit.committedInstType_0::IprAccess            0      0.00%    100.00% # Class of committed instruction (Count)
system.cpu.commit.committedInstType_0::InstPrefetch            0      0.00%    100.00% # Class of committed instruction (Count)
system.cpu.commit.committedInstType_0::total    115800255                       # Class of committed instruction (Count)
system.cpu.commit.commitEligibleSamples       7037054                       # number cycles where commit BW limit reached (Cycle)
system.cpu.dcache.demandHits::cpu.data       31122041                       # number of demand (read+write) hits (Count)
system.cpu.dcache.demandHits::total          31122041                       # number of demand (read+write) hits (Count)
system.cpu.dcache.overallHits::cpu.data      31199173                       # number of overall hits (Count)
system.cpu.dcache.overallHits::total         31199173                       # number of overall hits (Count)
system.cpu.dcache.demandMisses::cpu.data       112271                       # number of demand (read+write) misses (Count)
system.cpu.dcache.demandMisses::total          112271                       # number of demand (read+write) misses (Count)
system.cpu.dcache.overallMisses::cpu.data       112278                       # number of overall misses (Count)
system.cpu.dcache.overallMisses::total         112278                       # number of overall misses (Count)
system.cpu.dcache.demandMissLatency::cpu.data   7577246841                       # number of demand (read+write) miss ticks (Tick)
system.cpu.dcache.demandMissLatency::total   7577246841                       # number of demand (read+write) miss ticks (Tick)
system.cpu.dcache.overallMissLatency::cpu.data   7577246841                       # number of overall miss ticks (Tick)
system.cpu.dcache.overallMissLatency::total   7577246841                       # number of overall miss ticks (Tick)
system.cpu.dcache.demandAccesses::cpu.data     31234312                       # number of demand (read+write) accesses (Count)
system.cpu.dcache.demandAccesses::total      31234312                       # number of demand (read+write) accesses (Count)
system.cpu.dcache.overallAccesses::cpu.data     31311451                       # number of overall (read+write) accesses (Count)
system.cpu.dcache.overallAccesses::total     31311451                       # number of overall (read+write) accesses (Count)
system.cpu.dcache.demandMissRate::cpu.data     0.003594                       # miss rate for demand accesses (Ratio)
system.cpu.dcache.demandMissRate::total      0.003594                       # miss rate for demand accesses (Ratio)
system.cpu.dcache.overallMissRate::cpu.data     0.003586                       # miss rate for overall accesses (Ratio)
system.cpu.dcache.overallMissRate::total     0.003586                       # miss rate for overall accesses (Ratio)
system.cpu.dcache.demandAvgMissLatency::cpu.data 67490.686295                       # average overall miss latency ((Cycle/Count))
system.cpu.dcache.demandAvgMissLatency::total 67490.686295                       # average overall miss latency ((Cycle/Count))
system.cpu.dcache.overallAvgMissLatency::cpu.data 67486.478571                       # average overall miss latency ((Cycle/Count))
system.cpu.dcache.overallAvgMissLatency::total 67486.478571                       # average overall miss latency ((Cycle/Count))
system.cpu.dcache.blockedCycles::no_mshrs       642420                       # number of cycles access was blocked (Cycle)
system.cpu.dcache.blockedCycles::no_targets            0                       # number of cycles access was blocked (Cycle)
system.cpu.dcache.blockedCauses::no_mshrs        17836                       # number of times access was blocked (Count)
system.cpu.dcache.blockedCauses::no_targets            0                       # number of times access was blocked (Count)
system.cpu.dcache.avgBlocked::no_mshrs      36.018166                       # average number of cycles each access was blocked ((Cycle/Count))
system.cpu.dcache.avgBlocked::no_targets          nan                       # average number of cycles each access was blocked ((Cycle/Count))
system.cpu.dcache.writebacks::writebacks        15025                       # number of writebacks (Count)
system.cpu.dcache.writebacks::total             15025                       # number of writebacks (Count)
system.cpu.dcache.demandMshrHits::cpu.data        86021                       # number of demand (read+write) MSHR hits (Count)
system.cpu.dcache.demandMshrHits::total         86021                       # number of demand (read+write) MSHR hits (Count)
system.cpu.dcache.overallMshrHits::cpu.data        86021                       # number of overall MSHR hits (Count)
system.cpu.dcache.overallMshrHits::total        86021                       # number of overall MSHR hits (Count)
system.cpu.dcache.demandMshrMisses::cpu.data        26250                       # number of demand (read+write) MSHR misses (Count)
system.cpu.dcache.demandMshrMisses::total        26250                       # number of demand (read+write) MSHR misses (Count)
system.cpu.dcache.overallMshrMisses::cpu.data        26257                       # number of overall MSHR misses (Count)
system.cpu.dcache.overallMshrMisses::total        26257                       # number of overall MSHR misses (Count)
system.cpu.dcache.demandMshrMissLatency::cpu.data   1919947420                       # number of demand (read+write) MSHR miss ticks (Tick)
system.cpu.dcache.demandMshrMissLatency::total   1919947420                       # number of demand (read+write) MSHR miss ticks (Tick)
system.cpu.dcache.overallMshrMissLatency::cpu.data   1920426420                       # number of overall MSHR miss ticks (Tick)
system.cpu.dcache.overallMshrMissLatency::total   1920426420                       # number of overall MSHR miss ticks (Tick)
system.cpu.dcache.demandMshrMissRate::cpu.data     0.000840                       # mshr miss ratio for demand accesses (Ratio)
system.cpu.dcache.demandMshrMissRate::total     0.000840                       # mshr miss ratio for demand accesses (Ratio)
system.cpu.dcache.overallMshrMissRate::cpu.data     0.000839                       # mshr miss ratio for overall accesses (Ratio)
system.cpu.dcache.overallMshrMissRate::total     0.000839                       # mshr miss ratio for overall accesses (Ratio)
system.cpu.dcache.demandAvgMshrMissLatency::cpu.data 73140.854095                       # average overall mshr miss latency ((Cycle/Count))
system.cpu.dcache.demandAvgMshrMissLatency::total 73140.854095                       # average overall mshr miss latency ((Cycle/Count))
system.cpu.dcache.overallAvgMshrMissLatency::cpu.data 73139.597822                       # average overall mshr miss latency ((Cycle/Count))
system.cpu.dcache.overallAvgMshrMissLatency::total 73139.597822                       # average overall mshr miss latency ((Cycle/Count))
system.cpu.dcache.replacements                  24212                       # number of replacements (Count)
system.cpu.dcache.LoadLockedReq.hits::cpu.data           38                       # number of LoadLockedReq hits (Count)
system.cpu.dcache.LoadLockedReq.hits::total           38                       # number of LoadLockedReq hits (Count)
system.cpu.dcache.LoadLockedReq.misses::cpu.data            5                       # number of LoadLockedReq misses (Count)
system.cpu.dcache.LoadLockedReq.misses::total            5                       # number of LoadLockedReq misses (Count)
system.cpu.dcache.LoadLockedReq.missLatency::cpu.data       340000                       # number of LoadLockedReq miss ticks (Tick)
system.cpu.dcache.LoadLockedReq.missLatency::total       340000                       # number of LoadLockedReq miss ticks (Tick)
system.cpu.dcache.LoadLockedReq.accesses::cpu.data           43                       # number of LoadLockedReq accesses(hits+misses) (Count)
system.cpu.dcache.LoadLockedReq.accesses::total           43                       # number of LoadLockedReq accesses(hits+misses) (Count)
system.cpu.dcache.LoadLockedReq.missRate::cpu.data     0.116279                       # miss rate for LoadLockedReq accesses (Ratio)
system.cpu.dcache.LoadLockedReq.missRate::total     0.116279                       # miss rate for LoadLockedReq accesses (Ratio)
system.cpu.dcache.LoadLockedReq.avgMissLatency::cpu.data        68000                       # average LoadLockedReq miss latency ((Tick/Count))
system.cpu.dcache.LoadLockedReq.avgMissLatency::total        68000                       # average LoadLockedReq miss latency ((Tick/Count))
system.cpu.dcache.LoadLockedReq.mshrHits::cpu.data            2                       # number of LoadLockedReq MSHR hits (Count)
system.cpu.dcache.LoadLockedReq.mshrHits::total            2                       # number of LoadLockedReq MSHR hits (Count)
system.cpu.dcache.LoadLockedReq.mshrMisses::cpu.data            3                       # number of LoadLockedReq MSHR misses (Count)
system.cpu.dcache.LoadLockedReq.mshrMisses::total            3                       # number of LoadLockedReq MSHR misses (Count)
system.cpu.dcache.LoadLockedReq.mshrMissLatency::cpu.data       269500                       # number of LoadLockedReq MSHR miss ticks (Tick)
system.cpu.dcache.LoadLockedReq.mshrMissLatency::total       269500                       # number of LoadLockedReq MSHR miss ticks (Tick)
system.cpu.dcache.LoadLockedReq.mshrMissRate::cpu.data     0.069767                       # mshr miss rate for LoadLockedReq accesses (Ratio)
system.cpu.dcache.LoadLockedReq.mshrMissRate::total     0.069767                       # mshr miss rate for LoadLockedReq accesses (Ratio)
system.cpu.dcache.LoadLockedReq.avgMshrMissLatency::cpu.data 89833.333333                       # average LoadLockedReq mshr miss latency ((Tick/Count))
system.cpu.dcache.LoadLockedReq.avgMshrMissLatency::total 89833.333333                       # average LoadLockedReq mshr miss latency ((Tick/Count))
system.cpu.dcache.ReadReq.hits::cpu.data     20314319                       # number of ReadReq hits (Count)
system.cpu.dcache.ReadReq.hits::total        20314319                       # number of ReadReq hits (Count)
system.cpu.dcache.ReadReq.misses::cpu.data        44444                       # number of ReadReq misses (Count)
system.cpu.dcache.ReadReq.misses::total         44444                       # number of ReadReq misses (Count)
system.cpu.dcache.ReadReq.missLatency::cpu.data   3352097000                       # number of ReadReq miss ticks (Tick)
system.cpu.dcache.ReadReq.missLatency::total   3352097000                       # number of ReadReq miss ticks (Tick)
system.cpu.dcache.ReadReq.accesses::cpu.data     20358763                       # number of ReadReq accesses(hits+misses) (Count)
system.cpu.dcache.ReadReq.accesses::total     20358763                       # number of ReadReq accesses(hits+misses) (Count)
system.cpu.dcache.ReadReq.missRate::cpu.data     0.002183                       # miss rate for ReadReq accesses (Ratio)
system.cpu.dcache.ReadReq.missRate::total     0.002183                       # miss rate for ReadReq accesses (Ratio)
system.cpu.dcache.ReadReq.avgMissLatency::cpu.data 75422.936729                       # average ReadReq miss latency ((Tick/Count))
system.cpu.dcache.ReadReq.avgMissLatency::total 75422.936729                       # average ReadReq miss latency ((Tick/Count))
system.cpu.dcache.ReadReq.mshrHits::cpu.data        29754                       # number of ReadReq MSHR hits (Count)
system.cpu.dcache.ReadReq.mshrHits::total        29754                       # number of ReadReq MSHR hits (Count)
system.cpu.dcache.ReadReq.mshrMisses::cpu.data        14690                       # number of ReadReq MSHR misses (Count)
system.cpu.dcache.ReadReq.mshrMisses::total        14690                       # number of ReadReq MSHR misses (Count)
system.cpu.dcache.ReadReq.mshrMissLatency::cpu.data   1150688503                       # number of ReadReq MSHR miss ticks (Tick)
system.cpu.dcache.ReadReq.mshrMissLatency::total   1150688503                       # number of ReadReq MSHR miss ticks (Tick)
system.cpu.dcache.ReadReq.mshrMissRate::cpu.data     0.000722                       # mshr miss rate for ReadReq accesses (Ratio)
system.cpu.dcache.ReadReq.mshrMissRate::total     0.000722                       # mshr miss rate for ReadReq accesses (Ratio)
system.cpu.dcache.ReadReq.avgMshrMissLatency::cpu.data 78331.416133                       # average ReadReq mshr miss latency ((Tick/Count))
system.cpu.dcache.ReadReq.avgMshrMissLatency::total 78331.416133                       # average ReadReq mshr miss latency ((Tick/Count))
system.cpu.dcache.SoftPFReq.hits::cpu.data        77132                       # number of SoftPFReq hits (Count)
system.cpu.dcache.SoftPFReq.hits::total         77132                       # number of SoftPFReq hits (Count)
system.cpu.dcache.SoftPFReq.misses::cpu.data            7                       # number of SoftPFReq misses (Count)
system.cpu.dcache.SoftPFReq.misses::total            7                       # number of SoftPFReq misses (Count)
system.cpu.dcache.SoftPFReq.accesses::cpu.data        77139                       # number of SoftPFReq accesses(hits+misses) (Count)
system.cpu.dcache.SoftPFReq.accesses::total        77139                       # number of SoftPFReq accesses(hits+misses) (Count)
system.cpu.dcache.SoftPFReq.missRate::cpu.data     0.000091                       # miss rate for SoftPFReq accesses (Ratio)
system.cpu.dcache.SoftPFReq.missRate::total     0.000091                       # miss rate for SoftPFReq accesses (Ratio)
system.cpu.dcache.SoftPFReq.mshrMisses::cpu.data            7                       # number of SoftPFReq MSHR misses (Count)
system.cpu.dcache.SoftPFReq.mshrMisses::total            7                       # number of SoftPFReq MSHR misses (Count)
system.cpu.dcache.SoftPFReq.mshrMissLatency::cpu.data       479000                       # number of SoftPFReq MSHR miss ticks (Tick)
system.cpu.dcache.SoftPFReq.mshrMissLatency::total       479000                       # number of SoftPFReq MSHR miss ticks (Tick)
system.cpu.dcache.SoftPFReq.mshrMissRate::cpu.data     0.000091                       # mshr miss rate for SoftPFReq accesses (Ratio)
system.cpu.dcache.SoftPFReq.mshrMissRate::total     0.000091                       # mshr miss rate for SoftPFReq accesses (Ratio)
system.cpu.dcache.SoftPFReq.avgMshrMissLatency::cpu.data 68428.571429                       # average SoftPFReq mshr miss latency ((Tick/Count))
system.cpu.dcache.SoftPFReq.avgMshrMissLatency::total 68428.571429                       # average SoftPFReq mshr miss latency ((Tick/Count))
system.cpu.dcache.StoreCondReq.hits::cpu.data           10                       # number of StoreCondReq hits (Count)
system.cpu.dcache.StoreCondReq.hits::total           10                       # number of StoreCondReq hits (Count)
system.cpu.dcache.StoreCondReq.accesses::cpu.data           10                       # number of StoreCondReq accesses(hits+misses) (Count)
system.cpu.dcache.StoreCondReq.accesses::total           10                       # number of StoreCondReq accesses(hits+misses) (Count)
system.cpu.dcache.SwapReq.hits::cpu.data        39377                       # number of SwapReq hits (Count)
system.cpu.dcache.SwapReq.hits::total           39377                       # number of SwapReq hits (Count)
system.cpu.dcache.SwapReq.misses::cpu.data            1                       # number of SwapReq misses (Count)
system.cpu.dcache.SwapReq.misses::total             1                       # number of SwapReq misses (Count)
system.cpu.dcache.SwapReq.missLatency::cpu.data        95000                       # number of SwapReq miss ticks (Tick)
system.cpu.dcache.SwapReq.missLatency::total        95000                       # number of SwapReq miss ticks (Tick)
system.cpu.dcache.SwapReq.accesses::cpu.data        39378                       # number of SwapReq accesses(hits+misses) (Count)
system.cpu.dcache.SwapReq.accesses::total        39378                       # number of SwapReq accesses(hits+misses) (Count)
system.cpu.dcache.SwapReq.missRate::cpu.data     0.000025                       # miss rate for SwapReq accesses (Ratio)
system.cpu.dcache.SwapReq.missRate::total     0.000025                       # miss rate for SwapReq accesses (Ratio)
system.cpu.dcache.SwapReq.avgMissLatency::cpu.data        95000                       # average SwapReq miss latency ((Tick/Count))
system.cpu.dcache.SwapReq.avgMissLatency::total        95000                       # average SwapReq miss latency ((Tick/Count))
system.cpu.dcache.SwapReq.mshrHits::cpu.data            1                       # number of SwapReq MSHR hits (Count)
system.cpu.dcache.SwapReq.mshrHits::total            1                       # number of SwapReq MSHR hits (Count)
system.cpu.dcache.WriteLineReq.misses::cpu.data         2054                       # number of WriteLineReq misses (Count)
system.cpu.dcache.WriteLineReq.misses::total         2054                       # number of WriteLineReq misses (Count)
system.cpu.dcache.WriteLineReq.missLatency::cpu.data     25154194                       # number of WriteLineReq miss ticks (Tick)
system.cpu.dcache.WriteLineReq.missLatency::total     25154194                       # number of WriteLineReq miss ticks (Tick)
system.cpu.dcache.WriteLineReq.accesses::cpu.data         2054                       # number of WriteLineReq accesses(hits+misses) (Count)
system.cpu.dcache.WriteLineReq.accesses::total         2054                       # number of WriteLineReq accesses(hits+misses) (Count)
system.cpu.dcache.WriteLineReq.missRate::cpu.data            1                       # miss rate for WriteLineReq accesses (Ratio)
system.cpu.dcache.WriteLineReq.missRate::total            1                       # miss rate for WriteLineReq accesses (Ratio)
system.cpu.dcache.WriteLineReq.avgMissLatency::cpu.data 12246.443038                       # average WriteLineReq miss latency ((Tick/Count))
system.cpu.dcache.WriteLineReq.avgMissLatency::total 12246.443038                       # average WriteLineReq miss latency ((Tick/Count))
system.cpu.dcache.WriteLineReq.mshrMisses::cpu.data         2054                       # number of WriteLineReq MSHR misses (Count)
system.cpu.dcache.WriteLineReq.mshrMisses::total         2054                       # number of WriteLineReq MSHR misses (Count)
system.cpu.dcache.WriteLineReq.mshrMissLatency::cpu.data     23100194                       # number of WriteLineReq MSHR miss ticks (Tick)
system.cpu.dcache.WriteLineReq.mshrMissLatency::total     23100194                       # number of WriteLineReq MSHR miss ticks (Tick)
system.cpu.dcache.WriteLineReq.mshrMissRate::cpu.data            1                       # mshr miss rate for WriteLineReq accesses (Ratio)
system.cpu.dcache.WriteLineReq.mshrMissRate::total            1                       # mshr miss rate for WriteLineReq accesses (Ratio)
system.cpu.dcache.WriteLineReq.avgMshrMissLatency::cpu.data 11246.443038                       # average WriteLineReq mshr miss latency ((Tick/Count))
system.cpu.dcache.WriteLineReq.avgMshrMissLatency::total 11246.443038                       # average WriteLineReq mshr miss latency ((Tick/Count))
system.cpu.dcache.WriteReq.hits::cpu.data     10807722                       # number of WriteReq hits (Count)
system.cpu.dcache.WriteReq.hits::total       10807722                       # number of WriteReq hits (Count)
system.cpu.dcache.WriteReq.misses::cpu.data        65773                       # number of WriteReq misses (Count)
system.cpu.dcache.WriteReq.misses::total        65773                       # number of WriteReq misses (Count)
system.cpu.dcache.WriteReq.missLatency::cpu.data   4199995647                       # number of WriteReq miss ticks (Tick)
system.cpu.dcache.WriteReq.missLatency::total   4199995647                       # number of WriteReq miss ticks (Tick)
system.cpu.dcache.WriteReq.accesses::cpu.data     10873495                       # number of WriteReq accesses(hits+misses) (Count)
system.cpu.dcache.WriteReq.accesses::total     10873495                       # number of WriteReq accesses(hits+misses) (Count)
system.cpu.dcache.WriteReq.missRate::cpu.data     0.006049                       # miss rate for WriteReq accesses (Ratio)
system.cpu.dcache.WriteReq.missRate::total     0.006049                       # miss rate for WriteReq accesses (Ratio)
system.cpu.dcache.WriteReq.avgMissLatency::cpu.data 63855.923358                       # average WriteReq miss latency ((Tick/Count))
system.cpu.dcache.WriteReq.avgMissLatency::total 63855.923358                       # average WriteReq miss latency ((Tick/Count))
system.cpu.dcache.WriteReq.mshrHits::cpu.data        56267                       # number of WriteReq MSHR hits (Count)
system.cpu.dcache.WriteReq.mshrHits::total        56267                       # number of WriteReq MSHR hits (Count)
system.cpu.dcache.WriteReq.mshrMisses::cpu.data         9506                       # number of WriteReq MSHR misses (Count)
system.cpu.dcache.WriteReq.mshrMisses::total         9506                       # number of WriteReq MSHR misses (Count)
system.cpu.dcache.WriteReq.mshrMissLatency::cpu.data    746158723                       # number of WriteReq MSHR miss ticks (Tick)
system.cpu.dcache.WriteReq.mshrMissLatency::total    746158723                       # number of WriteReq MSHR miss ticks (Tick)
system.cpu.dcache.WriteReq.mshrMissRate::cpu.data     0.000874                       # mshr miss rate for WriteReq accesses (Ratio)
system.cpu.dcache.WriteReq.mshrMissRate::total     0.000874                       # mshr miss rate for WriteReq accesses (Ratio)
system.cpu.dcache.WriteReq.avgMshrMissLatency::cpu.data 78493.448664                       # average WriteReq mshr miss latency ((Tick/Count))
system.cpu.dcache.WriteReq.avgMshrMissLatency::total 78493.448664                       # average WriteReq mshr miss latency ((Tick/Count))
system.cpu.dcache.power_state.pwrStateResidencyTicks::UNDEFINED  27256328500                       # Cumulative time (in ticks) in various power states (Tick)
system.cpu.dcache.tags.tagsInUse          2044.247914                       # Average ticks per tags in use ((Tick/Count))
system.cpu.dcache.tags.totalRefs             31264858                       # Total number of references to valid blocks. (Count)
system.cpu.dcache.tags.sampledRefs              26260                       # Sample count of references to valid blocks. (Count)
system.cpu.dcache.tags.avgRefs            1190.588652                       # Average number of references to valid blocks. ((Count/Count))
system.cpu.dcache.tags.warmupTick              145000                       # The tick when the warmup percentage was hit. (Tick)
system.cpu.dcache.tags.occupancies::cpu.data  2044.247914                       # Average occupied blocks per tick, per requestor ((Count/Tick))
system.cpu.dcache.tags.avgOccs::cpu.data     0.998168                       # Average percentage of cache occupancy ((Ratio/Tick))
system.cpu.dcache.tags.avgOccs::total        0.998168                       # Average percentage of cache occupancy ((Ratio/Tick))
system.cpu.dcache.tags.occupanciesTaskId::1024         2048                       # Occupied blocks per task id (Count)
system.cpu.dcache.tags.ageTaskId_1024::0           75                       # Occupied blocks per task id, per block age (Count)
system.cpu.dcache.tags.ageTaskId_1024::1            8                       # Occupied blocks per task id, per block age (Count)
system.cpu.dcache.tags.ageTaskId_1024::2          124                       # Occupied blocks per task id, per block age (Count)
system.cpu.dcache.tags.ageTaskId_1024::3          471                       # Occupied blocks per task id, per block age (Count)
system.cpu.dcache.tags.ageTaskId_1024::4         1370                       # Occupied blocks per task id, per block age (Count)
system.cpu.dcache.tags.ratioOccsTaskId::1024            1                       # Ratio of occupied blocks and all blocks, per task id (Ratio)
system.cpu.dcache.tags.tagAccesses           62728024                       # Number of tag accesses (Count)
system.cpu.dcache.tags.dataAccesses          62728024                       # Number of data accesses (Count)
system.cpu.dcache.tags.power_state.pwrStateResidencyTicks::UNDEFINED  27256328500                       # Cumulative time (in ticks) in various power states (Tick)
system.cpu.decode.idleCycles                 19267164                       # Number of cycles decode is idle (Cycle)
system.cpu.decode.blockedCycles               8922758                       # Number of cycles decode is blocked (Cycle)
system.cpu.decode.runCycles                  21350277                       # Number of cycles decode is running (Cycle)
system.cpu.decode.unblockCycles               1909487                       # Number of cycles decode is unblocking (Cycle)
system.cpu.decode.squashCycles                 248409                       # Number of cycles decode is squashing (Cycle)
system.cpu.decode.branchResolved             11424815                       # Number of times decode resolved a branch (Count)
system.cpu.decode.branchMispred                 49486                       # Number of times decode detected a branch misprediction (Count)
system.cpu.decode.decodedInsts              125029011                       # Number of instructions handled by decode (Count)
system.cpu.decode.squashedInsts                 99485                       # Number of squashed instructions handled by decode (Count)
system.cpu.fetch.icacheStallCycles           21769576                       # Number of cycles fetch is stalled on an Icache miss (Cycle)
system.cpu.fetch.insts                      118311818                       # Number of instructions fetch has processed (Count)
system.cpu.fetch.branches                    20277483                       # Number of branches that fetch encountered (Count)
system.cpu.fetch.predictedBranches           12740541                       # Number of branches that fetch has predicted taken (Count)
system.cpu.fetch.cycles                      29630540                       # Number of cycles fetch has run and was not squashing or blocked (Cycle)
system.cpu.fetch.squashCycles                  595768                       # Number of cycles fetch has spent squashing (Cycle)
system.cpu.fetch.miscStallCycles                    6                       # Number of cycles fetch has spent waiting on interrupts, or bad addresses, or out of MSHRs (Cycle)
system.cpu.fetch.icacheWaitRetryStallCycles           89                       # Number of stall cycles due to full MSHR (Cycle)
system.cpu.fetch.cacheLines                  17944874                       # Number of cache lines fetched (Count)
system.cpu.fetch.icacheSquashes                129947                       # Number of outstanding Icache misses that were squashed (Count)
system.cpu.fetch.nisnDist::samples           51698095                       # Number of instructions fetched each cycle (Total) (Count)
system.cpu.fetch.nisnDist::mean              2.464120                       # Number of instructions fetched each cycle (Total) (Count)
system.cpu.fetch.nisnDist::stdev             3.032146                       # Number of instructions fetched each cycle (Total) (Count)
system.cpu.fetch.nisnDist::underflows               0      0.00%      0.00% # Number of instructions fetched each cycle (Total) (Count)
system.cpu.fetch.nisnDist::0                 26634628     51.52%     51.52% # Number of instructions fetched each cycle (Total) (Count)
system.cpu.fetch.nisnDist::1                  1208149      2.34%     53.86% # Number of instructions fetched each cycle (Total) (Count)
system.cpu.fetch.nisnDist::2                  4615445      8.93%     62.78% # Number of instructions fetched each cycle (Total) (Count)
system.cpu.fetch.nisnDist::3                  1351086      2.61%     65.40% # Number of instructions fetched each cycle (Total) (Count)
system.cpu.fetch.nisnDist::4                  3989020      7.72%     73.11% # Number of instructions fetched each cycle (Total) (Count)
system.cpu.fetch.nisnDist::5                  1538120      2.98%     76.09% # Number of instructions fetched each cycle (Total) (Count)
system.cpu.fetch.nisnDist::6                  4293937      8.31%     84.39% # Number of instructions fetched each cycle (Total) (Count)
system.cpu.fetch.nisnDist::7                  1053970      2.04%     86.43% # Number of instructions fetched each cycle (Total) (Count)
system.cpu.fetch.nisnDist::8                  7013740     13.57%    100.00% # Number of instructions fetched each cycle (Total) (Count)
system.cpu.fetch.nisnDist::overflows                0      0.00%    100.00% # Number of instructions fetched each cycle (Total) (Count)
system.cpu.fetch.nisnDist::min_value                0                       # Number of instructions fetched each cycle (Total) (Count)
system.cpu.fetch.nisnDist::max_value                8                       # Number of instructions fetched each cycle (Total) (Count)
system.cpu.fetch.nisnDist::total             51698095                       # Number of instructions fetched each cycle (Total) (Count)
system.cpu.fetch.branchRate                  0.371978                       # Number of branch fetches per cycle (Ratio)
system.cpu.fetch.rate                        2.170355                       # Number of inst fetches per cycle ((Count/Cycle))
system.cpu.icache.demandHits::cpu.inst       17782773                       # number of demand (read+write) hits (Count)
system.cpu.icache.demandHits::total          17782773                       # number of demand (read+write) hits (Count)
system.cpu.icache.overallHits::cpu.inst      17782773                       # number of overall hits (Count)
system.cpu.icache.overallHits::total         17782773                       # number of overall hits (Count)
system.cpu.icache.demandMisses::cpu.inst       162101                       # number of demand (read+write) misses (Count)
system.cpu.icache.demandMisses::total          162101                       # number of demand (read+write) misses (Count)
system.cpu.icache.overallMisses::cpu.inst       162101                       # number of overall misses (Count)
system.cpu.icache.overallMisses::total         162101                       # number of overall misses (Count)
system.cpu.icache.demandMissLatency::cpu.inst   3762859997                       # number of demand (read+write) miss ticks (Tick)
system.cpu.icache.demandMissLatency::total   3762859997                       # number of demand (read+write) miss ticks (Tick)
system.cpu.icache.overallMissLatency::cpu.inst   3762859997                       # number of overall miss ticks (Tick)
system.cpu.icache.overallMissLatency::total   3762859997                       # number of overall miss ticks (Tick)
system.cpu.icache.demandAccesses::cpu.inst     17944874                       # number of demand (read+write) accesses (Count)
system.cpu.icache.demandAccesses::total      17944874                       # number of demand (read+write) accesses (Count)
system.cpu.icache.overallAccesses::cpu.inst     17944874                       # number of overall (read+write) accesses (Count)
system.cpu.icache.overallAccesses::total     17944874                       # number of overall (read+write) accesses (Count)
system.cpu.icache.demandMissRate::cpu.inst     0.009033                       # miss rate for demand accesses (Ratio)
system.cpu.icache.demandMissRate::total      0.009033                       # miss rate for demand accesses (Ratio)
system.cpu.icache.overallMissRate::cpu.inst     0.009033                       # miss rate for overall accesses (Ratio)
system.cpu.icache.overallMissRate::total     0.009033                       # miss rate for overall accesses (Ratio)
system.cpu.icache.demandAvgMissLatency::cpu.inst 23213.058507                       # average overall miss latency ((Cycle/Count))
system.cpu.icache.demandAvgMissLatency::total 23213.058507                       # average overall miss latency ((Cycle/Count))
system.cpu.icache.overallAvgMissLatency::cpu.inst 23213.058507                       # average overall miss latency ((Cycle/Count))
system.cpu.icache.overallAvgMissLatency::total 23213.058507                       # average overall miss latency ((Cycle/Count))
system.cpu.icache.blockedCycles::no_mshrs         1156                       # number of cycles access was blocked (Cycle)
system.cpu.icache.blockedCycles::no_targets            0                       # number of cycles access was blocked (Cycle)
system.cpu.icache.blockedCauses::no_mshrs           17                       # number of times access was blocked (Count)
system.cpu.icache.blockedCauses::no_targets            0                       # number of times access was blocked (Count)
system.cpu.icache.avgBlocked::no_mshrs             68                       # average number of cycles each access was blocked ((Cycle/Count))
system.cpu.icache.avgBlocked::no_targets          nan                       # average number of cycles each access was blocked ((Cycle/Count))
system.cpu.icache.writebacks::writebacks       151979                       # number of writebacks (Count)
system.cpu.icache.writebacks::total            151979                       # number of writebacks (Count)
system.cpu.icache.demandMshrHits::cpu.inst         9621                       # number of demand (read+write) MSHR hits (Count)
system.cpu.icache.demandMshrHits::total          9621                       # number of demand (read+write) MSHR hits (Count)
system.cpu.icache.overallMshrHits::cpu.inst         9621                       # number of overall MSHR hits (Count)
system.cpu.icache.overallMshrHits::total         9621                       # number of overall MSHR hits (Count)
system.cpu.icache.demandMshrMisses::cpu.inst       152480                       # number of demand (read+write) MSHR misses (Count)
system.cpu.icache.demandMshrMisses::total       152480                       # number of demand (read+write) MSHR misses (Count)
system.cpu.icache.overallMshrMisses::cpu.inst       152480                       # number of overall MSHR misses (Count)
system.cpu.icache.overallMshrMisses::total       152480                       # number of overall MSHR misses (Count)
system.cpu.icache.demandMshrMissLatency::cpu.inst   3460979999                       # number of demand (read+write) MSHR miss ticks (Tick)
system.cpu.icache.demandMshrMissLatency::total   3460979999                       # number of demand (read+write) MSHR miss ticks (Tick)
system.cpu.icache.overallMshrMissLatency::cpu.inst   3460979999                       # number of overall MSHR miss ticks (Tick)
system.cpu.icache.overallMshrMissLatency::total   3460979999                       # number of overall MSHR miss ticks (Tick)
system.cpu.icache.demandMshrMissRate::cpu.inst     0.008497                       # mshr miss ratio for demand accesses (Ratio)
system.cpu.icache.demandMshrMissRate::total     0.008497                       # mshr miss ratio for demand accesses (Ratio)
system.cpu.icache.overallMshrMissRate::cpu.inst     0.008497                       # mshr miss ratio for overall accesses (Ratio)
system.cpu.icache.overallMshrMissRate::total     0.008497                       # mshr miss ratio for overall accesses (Ratio)
system.cpu.icache.demandAvgMshrMissLatency::cpu.inst 22697.927591                       # average overall mshr miss latency ((Cycle/Count))
system.cpu.icache.demandAvgMshrMissLatency::total 22697.927591                       # average overall mshr miss latency ((Cycle/Count))
system.cpu.icache.overallAvgMshrMissLatency::cpu.inst 22697.927591                       # average overall mshr miss latency ((Cycle/Count))
system.cpu.icache.overallAvgMshrMissLatency::total 22697.927591                       # average overall mshr miss latency ((Cycle/Count))
system.cpu.icache.replacements                 151979                       # number of replacements (Count)
system.cpu.icache.ReadReq.hits::cpu.inst     17782773                       # number of ReadReq hits (Count)
system.cpu.icache.ReadReq.hits::total        17782773                       # number of ReadReq hits (Count)
system.cpu.icache.ReadReq.misses::cpu.inst       162101                       # number of ReadReq misses (Count)
system.cpu.icache.ReadReq.misses::total        162101                       # number of ReadReq misses (Count)
system.cpu.icache.ReadReq.missLatency::cpu.inst   3762859997                       # number of ReadReq miss ticks (Tick)
system.cpu.icache.ReadReq.missLatency::total   3762859997                       # number of ReadReq miss ticks (Tick)
system.cpu.icache.ReadReq.accesses::cpu.inst     17944874                       # number of ReadReq accesses(hits+misses) (Count)
system.cpu.icache.ReadReq.accesses::total     17944874                       # number of ReadReq accesses(hits+misses) (Count)
system.cpu.icache.ReadReq.missRate::cpu.inst     0.009033                       # miss rate for ReadReq accesses (Ratio)
system.cpu.icache.ReadReq.missRate::total     0.009033                       # miss rate for ReadReq accesses (Ratio)
system.cpu.icache.ReadReq.avgMissLatency::cpu.inst 23213.058507                       # average ReadReq miss latency ((Tick/Count))
system.cpu.icache.ReadReq.avgMissLatency::total 23213.058507                       # average ReadReq miss latency ((Tick/Count))
system.cpu.icache.ReadReq.mshrHits::cpu.inst         9621                       # number of ReadReq MSHR hits (Count)
system.cpu.icache.ReadReq.mshrHits::total         9621                       # number of ReadReq MSHR hits (Count)
system.cpu.icache.ReadReq.mshrMisses::cpu.inst       152480                       # number of ReadReq MSHR misses (Count)
system.cpu.icache.ReadReq.mshrMisses::total       152480                       # number of ReadReq MSHR misses (Count)
system.cpu.icache.ReadReq.mshrMissLatency::cpu.inst   3460979999                       # number of ReadReq MSHR miss ticks (Tick)
system.cpu.icache.ReadReq.mshrMissLatency::total   3460979999                       # number of ReadReq MSHR miss ticks (Tick)
system.cpu.icache.ReadReq.mshrMissRate::cpu.inst     0.008497                       # mshr miss rate for ReadReq accesses (Ratio)
system.cpu.icache.ReadReq.mshrMissRate::total     0.008497                       # mshr miss rate for ReadReq accesses (Ratio)
system.cpu.icache.ReadReq.avgMshrMissLatency::cpu.inst 22697.927591                       # average ReadReq mshr miss latency ((Tick/Count))
system.cpu.icache.ReadReq.avgMshrMissLatency::total 22697.927591                       # average ReadReq mshr miss latency ((Tick/Count))
system.cpu.icache.power_state.pwrStateResidencyTicks::UNDEFINED  27256328500                       # Cumulative time (in ticks) in various power states (Tick)
system.cpu.icache.tags.tagsInUse           495.938611                       # Average ticks per tags in use ((Tick/Count))
system.cpu.icache.tags.totalRefs             17935252                       # Total number of references to valid blocks. (Count)
system.cpu.icache.tags.sampledRefs             152479                       # Sample count of references to valid blocks. (Count)
system.cpu.icache.tags.avgRefs             117.624407                       # Average number of references to valid blocks. ((Count/Count))
system.cpu.icache.tags.warmupTick               77000                       # The tick when the warmup percentage was hit. (Tick)
system.cpu.icache.tags.occupancies::cpu.inst   495.938611                       # Average occupied blocks per tick, per requestor ((Count/Tick))
system.cpu.icache.tags.avgOccs::cpu.inst     0.968630                       # Average percentage of cache occupancy ((Ratio/Tick))
system.cpu.icache.tags.avgOccs::total        0.968630                       # Average percentage of cache occupancy ((Ratio/Tick))
system.cpu.icache.tags.occupanciesTaskId::1024          500                       # Occupied blocks per task id (Count)
system.cpu.icache.tags.ageTaskId_1024::0          100                       # Occupied blocks per task id, per block age (Count)
system.cpu.icache.tags.ageTaskId_1024::3            4                       # Occupied blocks per task id, per block age (Count)
system.cpu.icache.tags.ageTaskId_1024::4          396                       # Occupied blocks per task id, per block age (Count)
system.cpu.icache.tags.ratioOccsTaskId::1024     0.976562                       # Ratio of occupied blocks and all blocks, per task id (Ratio)
system.cpu.icache.tags.tagAccesses           36042227                       # Number of tag accesses (Count)
system.cpu.icache.tags.dataAccesses          36042227                       # Number of data accesses (Count)
system.cpu.icache.tags.power_state.pwrStateResidencyTicks::UNDEFINED  27256328500                       # Cumulative time (in ticks) in various power states (Tick)
system.cpu.iew.idleCycles                           0                       # Number of cycles IEW is idle (Cycle)
system.cpu.iew.squashCycles                    248409                       # Number of cycles IEW is squashing (Cycle)
system.cpu.iew.blockCycles                    1457828                       # Number of cycles IEW is blocking (Cycle)
system.cpu.iew.unblockCycles                   643050                       # Number of cycles IEW is unblocking (Cycle)
[...]
system.mem_ctrls.dram.bwRead::cpu.inst      358032668                       # Total read bandwidth from this memory ((Byte/Second))
system.mem_ctrls.dram.bwRead::cpu.data       56565212                       # Total read bandwidth from this memory ((Byte/Second))
system.mem_ctrls.dram.bwRead::total         414597880                       # Total read bandwidth from this memory ((Byte/Second))
system.mem_ctrls.dram.bwInstRead::cpu.inst    358032668                       # Instruction read bandwidth from this memory ((Byte/Second))
system.mem_ctrls.dram.bwInstRead::total     358032668                       # Instruction read bandwidth from this memory ((Byte/Second))
system.mem_ctrls.dram.bwWrite::writebacks     35279880                       # Write bandwidth from this memory ((Byte/Second))
system.mem_ctrls.dram.bwWrite::total         35279880                       # Write bandwidth from this memory ((Byte/Second))
system.mem_ctrls.dram.bwTotal::writebacks     35279880                       # Total bandwidth to/from this memory ((Byte/Second))
system.mem_ctrls.dram.bwTotal::cpu.inst     358032668                       # Total bandwidth to/from this memory ((Byte/Second))
system.mem_ctrls.dram.bwTotal::cpu.data      56565212                       # Total bandwidth to/from this memory ((Byte/Second))
system.mem_ctrls.dram.bwTotal::total        449877760                       # Total bandwidth to/from this memory ((Byte/Second))
system.mem_ctrls.dram.readBursts                26138                       # Number of DRAM read bursts (Count)
system.mem_ctrls.dram.writeBursts               17935                       # Number of DRAM write bursts (Count)
system.mem_ctrls.dram.perBankRdBursts::0         1298                       # Per bank write bursts (Count)
system.mem_ctrls.dram.perBankRdBursts::1         1349                       # Per bank write bursts (Count)
system.mem_ctrls.dram.perBankRdBursts::2         1392                       # Per bank write bursts (Count)
system.mem_ctrls.dram.perBankRdBursts::3         1779                       # Per bank write bursts (Count)
system.mem_ctrls.dram.perBankRdBursts::4         2221                       # Per bank write bursts (Count)
system.mem_ctrls.dram.perBankRdBursts::5         2340                       # Per bank write bursts (Count)
system.mem_ctrls.dram.perBankRdBursts::6         1947                       # Per bank write bursts (Count)
system.mem_ctrls.dram.perBankRdBursts::7         2002                       # Per bank write bursts (Count)
system.mem_ctrls.dram.perBankRdBursts::8         1284                       # Per bank write bursts (Count)
system.mem_ctrls.dram.perBankRdBursts::9         1363                       # Per bank write bursts (Count)
system.mem_ctrls.dram.perBankRdBursts::10         1231                       # Per bank write bursts (Count)
system.mem_ctrls.dram.perBankRdBursts::11         1529                       # Per bank write bursts (Count)
system.mem_ctrls.dram.perBankRdBursts::12         1792                       # Per bank write bursts (Count)
system.mem_ctrls.dram.perBankRdBursts::13         1815                       # Per bank write bursts (Count)
system.mem_ctrls.dram.perBankRdBursts::14         1536                       # Per bank write bursts (Count)
system.mem_ctrls.dram.perBankRdBursts::15         1260                       # Per bank write bursts (Count)
system.mem_ctrls.dram.perBankWrBursts::0          729                       # Per bank write bursts (Count)
system.mem_ctrls.dram.perBankWrBursts::1          744                       # Per bank write bursts (Count)
system.mem_ctrls.dram.perBankWrBursts::2          832                       # Per bank write bursts (Count)
system.mem_ctrls.dram.perBankWrBursts::3         1198                       # Per bank write bursts (Count)
system.mem_ctrls.dram.perBankWrBursts::4         1545                       # Per bank write bursts (Count)
system.mem_ctrls.dram.perBankWrBursts::5         1539                       # Per bank write bursts (Count)
system.mem_ctrls.dram.perBankWrBursts::6         1219                       # Per bank write bursts (Count)
system.mem_ctrls.dram.perBankWrBursts::7         1328                       # Per bank write bursts (Count)
system.mem_ctrls.dram.perBankWrBursts::8          734                       # Per bank write bursts (Count)
system.mem_ctrls.dram.perBankWrBursts::9         1140                       # Per bank write bursts (Count)
system.mem_ctrls.dram.perBankWrBursts::10          690                       # Per bank write bursts (Count)
system.mem_ctrls.dram.perBankWrBursts::11         1233                       # Per bank write bursts (Count)
system.mem_ctrls.dram.perBankWrBursts::12         1258                       # Per bank write bursts (Count)
system.mem_ctrls.dram.perBankWrBursts::13         1904                       # Per bank write bursts (Count)
system.mem_ctrls.dram.perBankWrBursts::14         1032                       # Per bank write bursts (Count)
system.mem_ctrls.dram.perBankWrBursts::15          810                       # Per bank write bursts (Count)
system.mem_ctrls.dram.totQLat               693341000                       # Total ticks spent queuing (Tick)
system.mem_ctrls.dram.totBusLat             130690000                       # Total ticks spent in databus transfers (Tick)
system.mem_ctrls.dram.totMemAccLat         1183428500                       # Total ticks spent from burst creation until serviced by the DRAM (Tick)
system.mem_ctrls.dram.avgQLat                26526.17                       # Average queueing delay per DRAM burst ((Tick/Count))
system.mem_ctrls.dram.avgBusLat               5000.00                       # Average bus latency per DRAM burst ((Tick/Count))
system.mem_ctrls.dram.avgMemAccLat           45276.17                       # Average memory access latency per DRAM burst ((Tick/Count))
system.mem_ctrls.dram.readRowHits               18834                       # Number of row buffer hits during reads (Count)
system.mem_ctrls.dram.writeRowHits              15416                       # Number of row buffer hits during writes (Count)
system.mem_ctrls.dram.readRowHitRate            72.06                       # Row buffer hit rate for reads (Ratio)
system.mem_ctrls.dram.writeRowHitRate           85.95                       # Row buffer hit rate for writes (Ratio)
system.mem_ctrls.dram.bytesPerActivate::samples         9810                       # Bytes accessed per row activation (Byte)
system.mem_ctrls.dram.bytesPerActivate::mean   287.236697                       # Bytes accessed per row activation (Byte)
system.mem_ctrls.dram.bytesPerActivate::gmean   202.580471                       # Bytes accessed per row activation (Byte)
system.mem_ctrls.dram.bytesPerActivate::stdev   251.053115                       # Bytes accessed per row activation (Byte)
system.mem_ctrls.dram.bytesPerActivate::0-127         2557     26.07%     26.07% # Bytes accessed per row activation (Byte)
system.mem_ctrls.dram.bytesPerActivate::128-255         1984     20.22%     46.29% # Bytes accessed per row activation (Byte)
system.mem_ctrls.dram.bytesPerActivate::256-383         3484     35.51%     81.80% # Bytes accessed per row activation (Byte)
system.mem_ctrls.dram.bytesPerActivate::384-511          503      5.13%     86.93% # Bytes accessed per row activation (Byte)
system.mem_ctrls.dram.bytesPerActivate::512-639          272      2.77%     89.70% # Bytes accessed per row activation (Byte)
system.mem_ctrls.dram.bytesPerActivate::640-767          160      1.63%     91.34% # Bytes accessed per row activation (Byte)
system.mem_ctrls.dram.bytesPerActivate::768-895          181      1.85%     93.18% # Bytes accessed per row activation (Byte)
system.mem_ctrls.dram.bytesPerActivate::896-1023           74      0.75%     93.93% # Bytes accessed per row activation (Byte)
system.mem_ctrls.dram.bytesPerActivate::1024-1151          595      6.07%    100.00% # Bytes accessed per row activation (Byte)
system.mem_ctrls.dram.bytesPerActivate::total         9810                       # Bytes accessed per row activation (Byte)
system.mem_ctrls.dram.bytesRead               1672832                       # Total bytes read (Byte)
system.mem_ctrls.dram.bytesWritten            1147840                       # Total bytes written (Byte)
system.mem_ctrls.dram.avgRdBW               61.374077                       # Average DRAM read bandwidth in MiBytes/s ((Byte/Second))
system.mem_ctrls.dram.avgWrBW               42.112789                       # Average DRAM write bandwidth in MiBytes/s ((Byte/Second))
system.mem_ctrls.dram.peakBW                 12800.00                       # Theoretical peak bandwidth in MiByte/s ((Byte/Second))
system.mem_ctrls.dram.busUtil                    0.81                       # Data bus utilization in percentage (Ratio)
system.mem_ctrls.dram.busUtilRead                0.48                       # Data bus utilization in percentage for reads (Ratio)
system.mem_ctrls.dram.busUtilWrite               0.33                       # Data bus utilization in percentage for writes (Ratio)
system.mem_ctrls.dram.pageHitRate               77.71                       # Row buffer hit rate, read and write combined (Ratio)
system.mem_ctrls.dram.power_state.pwrStateResidencyTicks::UNDEFINED  27256328500                       # Cumulative time (in ticks) in various power states (Tick)
system.mem_ctrls.dram.rank0.actEnergy        38591700                       # Energy for activate commands per rank (pJ) (Joule)
system.mem_ctrls.dram.rank0.preEnergy        20493000                       # Energy for precharge commands per rank (pJ) (Joule)
system.mem_ctrls.dram.rank0.readEnergy      102294780                       # Energy for read commands per rank (pJ) (Joule)
system.mem_ctrls.dram.rank0.writeEnergy      47679480                       # Energy for write commands per rank (pJ) (Joule)
system.mem_ctrls.dram.rank0.refreshEnergy 2151240000.000000                       # Energy for refresh commands per rank (pJ) (Joule)
system.mem_ctrls.dram.rank0.actBackEnergy   4512948780                       # Energy for active background per rank (pJ) (Joule)
system.mem_ctrls.dram.rank0.preBackEnergy   6666052320                       # Energy for precharge background per rank (pJ) (Joule)
system.mem_ctrls.dram.rank0.actPowerDownEnergy            0                       # Energy for active power-down per rank (pJ) (Joule)
system.mem_ctrls.dram.rank0.prePowerDownEnergy            0                       # Energy for precharge power-down per rank (pJ) (Joule)
system.mem_ctrls.dram.rank0.selfRefreshEnergy            0                       # Energy for self refresh per rank (pJ) (Joule)
system.mem_ctrls.dram.rank0.totalEnergy   13539300060                       # Total energy per rank (pJ) (Joule)
system.mem_ctrls.dram.rank0.averagePower   496.739686                       # Core power per rank (mW) (Watt)
system.mem_ctrls.dram.rank0.totalIdleTime            0                       # Total Idle time Per DRAM Rank (Tick)
system.mem_ctrls.dram.rank0.pwrStateTime::IDLE  17277355000                       # Time in different power states (Tick)
system.mem_ctrls.dram.rank0.pwrStateTime::REF    910000000                       # Time in different power states (Tick)
system.mem_ctrls.dram.rank0.pwrStateTime::SREF            0                       # Time in different power states (Tick)
system.mem_ctrls.dram.rank0.pwrStateTime::PRE_PDN            0                       # Time in different power states (Tick)
system.mem_ctrls.dram.rank0.pwrStateTime::ACT   9068973500                       # Time in different power states (Tick)
system.mem_ctrls.dram.rank0.pwrStateTime::ACT_PDN            0                       # Time in different power states (Tick)
system.mem_ctrls.dram.rank1.actEnergy        31537380                       # Energy for activate commands per rank (pJ) (Joule)
system.mem_ctrls.dram.rank1.preEnergy        16735950                       # Energy for precharge commands per rank (pJ) (Joule)
system.mem_ctrls.dram.rank1.readEnergy       84323400                       # Energy for read commands per rank (pJ) (Joule)
system.mem_ctrls.dram.rank1.writeEnergy      45941220                       # Energy for write commands per rank (pJ) (Joule)
system.mem_ctrls.dram.rank1.refreshEnergy 2151240000.000000                       # Energy for refresh commands per rank (pJ) (Joule)
system.mem_ctrls.dram.rank1.actBackEnergy   3227106300                       # Energy for active background per rank (pJ) (Joule)
system.mem_ctrls.dram.rank1.preBackEnergy   7748867040                       # Energy for precharge background per rank (pJ) (Joule)
system.mem_ctrls.dram.rank1.actPowerDownEnergy            0                       # Energy for active power-down per rank (pJ) (Joule)
system.mem_ctrls.dram.rank1.prePowerDownEnergy            0                       # Energy for precharge power-down per rank (pJ) (Joule)
system.mem_ctrls.dram.rank1.selfRefreshEnergy            0                       # Energy for self refresh per rank (pJ) (Joule)
system.mem_ctrls.dram.rank1.totalEnergy   13305751290                       # Total energy per rank (pJ) (Joule)
system.mem_ctrls.dram.rank1.averagePower   488.171079                       # Core power per rank (mW) (Watt)
system.mem_ctrls.dram.rank1.totalIdleTime            0                       # Total Idle time Per DRAM Rank (Tick)
system.mem_ctrls.dram.rank1.pwrStateTime::IDLE  20103449500                       # Time in different power states (Tick)
system.mem_ctrls.dram.rank1.pwrStateTime::REF    910000000                       # Time in different power states (Tick)
system.mem_ctrls.dram.rank1.pwrStateTime::SREF            0                       # Time in different power states (Tick)
system.mem_ctrls.dram.rank1.pwrStateTime::PRE_PDN            0                       # Time in different power states (Tick)
system.mem_ctrls.dram.rank1.pwrStateTime::ACT   6242879000                       # Time in different power states (Tick)
system.mem_ctrls.dram.rank1.pwrStateTime::ACT_PDN            0                       # Time in different power states (Tick)
system.mem_ctrls.power_state.pwrStateResidencyTicks::UNDEFINED  27256328500                       # Cumulative time (in ticks) in various power states (Tick)
system.membus.transDist::ReadResp              167178                       # Transaction distribution (Count)
system.membus.transDist::WritebackDirty         15025                       # Transaction distribution (Count)
system.membus.transDist::WritebackClean        151979                       # Transaction distribution (Count)
system.membus.transDist::CleanEvict              9187                       # Transaction distribution (Count)
system.membus.transDist::ReadExReq               9391                       # Transaction distribution (Count)
system.membus.transDist::ReadExResp              9391                       # Transaction distribution (Count)
system.membus.transDist::ReadCleanReq          152480                       # Transaction distribution (Count)
system.membus.transDist::ReadSharedReq          14699                       # Transaction distribution (Count)
system.membus.transDist::InvalidateReq           2170                       # Transaction distribution (Count)
system.membus.pktCount_system.cpu.icache.mem_side_port::system.mem_ctrls.port       456938                       # Packet count per connected requestor and responder (Count)
system.membus.pktCount_system.cpu.dcache.mem_side_port::system.mem_ctrls.port        74562                       # Packet count per connected requestor and responder (Count)
system.membus.pktCount::total                  531500                       # Packet count per connected requestor and responder (Count)
system.membus.pktSize_system.cpu.icache.mem_side_port::system.mem_ctrls.port     19485312                       # Cumulative packet size per connected requestor and responder (Byte)
system.membus.pktSize_system.cpu.dcache.mem_side_port::system.mem_ctrls.port      2503360                       # Cumulative packet size per connected requestor and responder (Byte)
system.membus.pktSize::total                 21988672                       # Cumulative packet size per connected requestor and responder (Byte)
system.membus.snoops                                0                       # Total snoops (Count)
system.membus.snoopTraffic                          0                       # Total snoop traffic (Byte)
system.membus.snoopFanout::samples             178740                       # Request fanout histogram (Count)
system.membus.snoopFanout::mean              0.000017                       # Request fanout histogram (Count)
system.membus.snoopFanout::stdev             0.004097                       # Request fanout histogram (Count)
system.membus.snoopFanout::underflows               0      0.00%      0.00% # Request fanout histogram (Count)
system.membus.snoopFanout::0                   178737    100.00%    100.00% # Request fanout histogram (Count)
system.membus.snoopFanout::1                        3      0.00%    100.00% # Request fanout histogram (Count)
system.membus.snoopFanout::2                        0      0.00%    100.00% # Request fanout histogram (Count)
system.membus.snoopFanout::overflows                0      0.00%    100.00% # Request fanout histogram (Count)
system.membus.snoopFanout::min_value                0                       # Request fanout histogram (Count)
system.membus.snoopFanout::max_value                1                       # Request fanout histogram (Count)
system.membus.snoopFanout::total               178740                       # Request fanout histogram (Count)
system.membus.power_state.pwrStateResidencyTicks::UNDEFINED  27256328500                       # Cumulative time (in ticks) in various power states (Tick)
system.membus.reqLayer0.occupancy          1043241000                       # Layer occupancy (ticks) (Tick)
system.membus.reqLayer0.utilization               0.0                       # Layer utilization (Ratio)
system.membus.respLayer1.occupancy          763087500                       # Layer occupancy (ticks) (Tick)
system.membus.respLayer1.utilization              0.0                       # Layer utilization (Ratio)
system.membus.respLayer2.occupancy          125972750                       # Layer occupancy (ticks) (Tick)
system.membus.respLayer2.utilization              0.0                       # Layer utilization (Ratio)
system.membus.snoop_filter.totRequests         354931                       # Total number of requests made to the snoop filter. (Count)
system.membus.snoop_filter.hitSingleRequests       176192                       # Number of requests hitting in the snoop filter with a single holder of the requested data. (Count)
system.membus.snoop_filter.hitMultiRequests            2                       # Number of requests hitting in the snoop filter with multiple (>1) holders of the requested data. (Count)
system.membus.snoop_filter.totSnoops                0                       # Total number of snoops made to the snoop filter. (Count)
system.membus.snoop_filter.hitSingleSnoops            0                       # Number of snoops hitting in the snoop filter with a single holder of the requested data. (Count)
system.membus.snoop_filter.hitMultiSnoops            0                       # Number of snoops hitting in the snoop filter with multiple (>1) holders of the requested data. (Count)
system.voltage_domain.voltage                       1                       # Voltage in Volts (Volt)
system.workload.inst.arm                            0                       # number of arm instructions executed (Count)
system.workload.inst.quiesce                        0                       # number of quiesce instructions executed (Count)

---------- End Simulation Statistics   ----------
