
---------- Begin Simulation Statistics ----------
simSeconds                                   0.015413                       # Number of seconds simulated (Second)
simTicks                                  15412656500                       # Number of ticks simulated (Tick)
finalTick                                 15412656500                       # Number of ticks from beginning of simulation (restored from checkpoints and never reset) (Tick)
simFreq                                  1000000000000                       # The number of ticks per simulated second ((Tick/Second))
hostSeconds                                     82.01                       # Real time elapsed on the host (Second)
hostTickRate                                187936434                       # The number of ticks simulated per host second (ticks/s) ((Tick/Second))
hostMemory                                     681000                       # Number of bytes of host memory used (Byte)
simInsts                                     51647944                       # Number of instructions simulated (Count)
simOps                                       56649980                       # Number of ops (including micro ops) simulated (Count)
hostInstRate                                   629776                       # Simulator instruction rate (inst/s) ((Count/Second))
hostOpRate                                     690768                       # Simulator op (including micro ops) rate (op/s) ((Count/Second))
system.clk_domain.clock                          1000                       # Clock period in ticks (Tick)
system.cpu.numCycles                         30825314                       # Number of cpu cycles simulated (Cycle)
system.cpu.numWorkItemsStarted                      0                       # Number of work items this cpu started (Count)
system.cpu.numWorkItemsCompleted                    0                       # Number of work items this cpu completed (Count)
system.cpu.instsAdded                        60413764                       # Number of instructions added to the IQ (excludes non-spec) (Count)
system.cpu.nonSpecInstsAdded                    72445                       # Number of non-speculative instructions added to the IQ (Count)
system.cpu.instsIssued                       60129346                       # Number of instructions issued (Count)
system.cpu.squashedInstsIssued                 135858                       # Number of squashed instructions issued (Count)
system.cpu.squashedInstsExamined              3836228                       # Number of squashed instructions iterated over during squash; mainly for profiling (Count)
system.cpu.squashedOperandsExamined           2820730                       # Number of squashed operands that are examined and possibly removed from graph (Count)
system.cpu.squashedNonSpecRemoved                 180                       # Number of squashed non-spec instructions that were removed (Count)
system.cpu.numIssuedDist::samples            29612227                       # Number of insts issued each cycle (Count)
system.cpu.numIssuedDist::mean               2.030558                       # Number of insts issued each cycle (Count)
system.cpu.numIssuedDist::stdev              2.152525                       # Number of insts issued each cycle (Count)
system.cpu.numIssuedDist::underflows                0      0.00%      0.00% # Number of insts issued each cycle (Count)
system.cpu.numIssuedDist::0                  11150555     37.66%     37.66% # Number of insts issued each cycle (Count)
system.cpu.numIssuedDist::1                   3391870     11.45%     49.11% # Number of insts issued each cycle (Count)
system.cpu.numIssuedDist::2                   4288130     14.48%     63.59% # Number of insts issued each cycle (Count)
system.cpu.numIssuedDist::3                   3736412     12.62%     76.21% # Number of insts issued each cycle (Count)
system.cpu.numIssuedDist::4                   2820117      9.52%     85.73% # Number of insts issued each cycle (Count)
system.cpu.numIssuedDist::5                   1383214      4.67%     90.40% # Number of insts issued each cycle (Count)
system.cpu.numIssuedDist::6                   1621197      5.47%     95.88% # Number of insts issued each cycle (Count)
system.cpu.numIssuedDist::7                    737596      2.49%     98.37% # Number of insts issued each cycle (Count)
system.cpu.numIssuedDist::8                    483136      1.63%    100.00% # Number of insts issued each cycle (Count)
system.cpu.numIssuedDist::overflows                 0      0.00%    100.00% # Number of insts issued each cycle (Count)
system.cpu.numIssuedDist::min_value                 0                       # Number of insts issued each cycle (Count)
system.cpu.numIssuedDist::max_value                 8                       # Number of insts issued each cycle (Count)
system.cpu.numIssuedDist::total              29612227                       # Number of insts issued each cycle (Count)
system.cpu.statFuBusy::No_OpClass                   0      0.00%      0.00% # attempts to use FU when none available (Count)
system.cpu.statFuBusy::IntAlu                  158658     13.85%     13.85% # attempts to use FU when none available (Count)
system.cpu.statFuBusy::IntMult                 153894     13.43%     27.28% # attempts to use FU when none available (Count)
system.cpu.statFuBusy::IntDiv                       0      0.00%     27.28% # attempts to use FU when none available (Count)
system.cpu.statFuBusy::FloatAdd                     0      0.00%     27.28% # attempts to use FU when none available (Count)
system.cpu.statFuBusy::FloatCmp                     0      0.00%     27.28% # attempts to use FU when none available (Count)
system.cpu.statFuBusy::FloatCvt                     0      0.00%     27.28% # attempts to use FU when none available (Count)
system.cpu.statFuBusy::FloatMult                    0      0.00%     27.28% # attempts to use FU when none available (Count)
system.cpu.statFuBusy::FloatMultAcc                 0      0.00%     27.28% # attempts to use FU when none available (Count)
system.cpu.statFuBusy::FloatDiv                     0      0.00%     27.28% # attempts to use FU when none available (Count)
system.cpu.statFuBusy::FloatMisc                    0      0.00%     27.28% # attempts to use FU when none available (Count)
system.cpu.statFuBusy::FloatSqrt                    0      0.00%     27.28% # attempts to use FU when none available (Count)
system.cpu.statFuBusy::SimdAdd                      0      0.00%     27.28% # attempts to use FU when none available (Count)
system.cpu.statFuBusy::SimdAddAcc                   0      0.00%     27.28% # attempts to use FU when none available (Count)
system.cpu.statFuBusy::SimdAlu                      1      0.00%     27.28% # attempts to use FU when none available (Count)
system.cpu.statFuBusy::SimdCmp                      1      0.00%     27.28% # attempts to use FU when none available (Count)
system.cpu.statFuBusy::SimdCvt                      0      0.00%     27.28% # attempts to use FU when none available (Count)
system.cpu.statFuBusy::SimdMisc                     0      0.00%     27.28% # attempts to use FU when none available (Count)
system.cpu.statFuBusy::SimdMult                     0      0.00%     27.28% # attempts to use FU when none available (Count)
system.cpu.statFuBusy::SimdMultAcc                  0      0.00%     27.28% # attempts to use FU when none available (Count)
system.cpu.statFuBusy::SimdShift                    0      0.00%     27.28% # attempts to use FU when none available (Count)
system.cpu.statFuBusy::SimdShiftAcc                 0      0.00%     27.28% # attempts to use FU when none available (Count)
system.cpu.statFuBusy::SimdDiv                      0      0.00%     27.28% # attempts to use FU when none available (Count)
system.cpu.statFuBusy::SimdSqrt                     0      0.00%     27.28% # attempts to use FU when none available (Count)
system.cpu.statFuBusy::SimdFloatAdd                 0      0.00%     27.28% # attempts to use FU when none available (Count)
system.cpu.statFuBusy::SimdFloatAlu                 0      0.00%     27.28% # attempts to use FU when none available (Count)
system.cpu.statFuBusy::SimdFloatCmp                 0      0.00%     27.28% # attempts to use FU when none available (Count)
system.cpu.statFuBusy::SimdFloatCvt                 0      0.00%     27.28% # attempts to use FU when none available (Count)
system.cpu.statFuBusy::SimdFloatDiv                 0      0.00%     27.28% # attempts to use FU when none available (Count)
system.cpu.statFuBusy::SimdFloatMisc                0      0.00%     27.28% # attempts to use FU when none available (Count)
system.cpu.statFuBusy::SimdFloatMult                0      0.00%     27.28% # attempts to use FU when none available (Count)
system.cpu.statFuBusy::SimdFloatMultAcc             0      0.00%     27.28% # attempts to use FU when none available (Count)
system.cpu.statFuBusy::SimdFloatSqrt                0      0.00%     27.28% # attempts to use FU when none available (Count)
system.cpu.statFuBusy::SimdReduceAdd                0      0.00%     27.28% # attempts to use FU when none available (Count)
system.cpu.statFuBusy::SimdReduceAlu                0      0.00%     27.28% # attempts to use FU when none available (Count)
system.cpu.statFuBusy::SimdReduceCmp                0      0.00%     27.28% # attempts to use FU when none available (Count)
system.cpu.statFuBusy::SimdFloatReduceAdd            0      0.00%     27.28% # attempts to use FU when none available (Count)
system.cpu.statFuBusy::SimdFloatReduceCmp            0      0.00%     27.28% # attempts to use FU when none available (Count)
system.cpu.statFuBusy::SimdAes                      0      0.00%     27.28% # attempts to use FU when none available (Count)
system.cpu.statFuBusy::SimdAesMix                   0      0.00%     27.28% # attempts to use FU when none available (Count)
system.cpu.statFuBusy::SimdSha1Hash                 0      0.00%     27.28% # attempts to use FU when none available (Count)
system.cpu.statFuBusy::SimdSha1Hash2                0      0.00%     27.28% # attempts to use FU when none available (Count)
system.cpu.statFuBusy::SimdSha256Hash               0      0.00%     27.28% # attempts to use FU when none available (Count)
system.cpu.statFuBusy::SimdSha256Hash2              0      0.00%     27.28% # attempts to use FU when none available (Count)
system.cpu.statFuBusy::SimdShaSigma2                0      0.00%     27.28% # attempts to use FU when none available (Count)
system.cpu.statFuBusy::SimdShaSigma3                0      0.00%     27.28% # attempts to use FU when none available (Count)
system.cpu.statFuBusy::SimdPredAlu                  0      0.00%     27.28% # attempts to use FU when none available (Count)
system.cpu.statFuBusy::MemRead                 445900     38.92%     66.20% # attempts to use FU when none available (Count)
system.cpu.statFuBusy::MemWrite                387312     33.80%    100.00% # attempts to use FU when none available (Count)
system.cpu.statFuBusy::FloatMemRead                 0      0.00%    100.00% # attempts to use FU when none available (Count)
system.cpu.statFuBusy::FloatMemWrite                0      0.00%    100.00% # attempts to use FU when none available (Count)
system.cpu.statFuBusy::IprAccess                    0      0.00%    100.00% # attempts to use FU when none available (Count)
system.cpu.statFuBusy::InstPrefetch                 0      0.00%    100.00% # attempts to use FU when none available (Count)
system.cpu.statIssuedInstType_0::No_OpClass        68896      0.11%      0.11% # Number of instructions issued per FU type, per thread (Count)
system.cpu.statIssuedInstType_0::IntAlu      38832081     64.58%     64.70% # Number of instructions issued per FU type, per thread (Count)
system.cpu.statIssuedInstType_0::IntMult       801131      1.33%     66.03% # Number of instructions issued per FU type, per thread (Count)
system.cpu.statIssuedInstType_0::IntDiv         89322      0.15%     66.18% # Number of instructions issued per FU type, per thread (Count)
system.cpu.statIssuedInstType_0::FloatAdd         6891      0.01%     66.19% # Number of instructions issued per FU type, per thread (Count)
system.cpu.statIssuedInstType_0::FloatCmp        32768      0.05%     66.24% # Number of instructions issued per FU type, per thread (Count)
system.cpu.statIssuedInstType_0::FloatCvt            0      0.00%     66.24% # Number of instructions issued per FU type, per thread (Count)
system.cpu.statIssuedInstType_0::FloatMult         5292      0.01%     66.25% # Number of instructions issued per FU type, per thread (Count)
system.cpu.statIssuedInstType_0::FloatMultAcc            0      0.00%     66.25% # Number of instructions issued per FU type, per thread (Count)
system.cpu.statIssuedInstType_0::FloatDiv            0      0.00%     66.25% # Number of instructions issued per FU type, per thread (Count)
system.cpu.statIssuedInstType_0::FloatMisc        55678      0.09%     66.34% # Number of instructions issued per FU type, per thread (Count)
system.cpu.statIssuedInstType_0::FloatSqrt            0      0.00%     66.34% # Number of instructions issued per FU type, per thread (Count)
system.cpu.statIssuedInstType_0::SimdAdd        65570      0.11%     66.45% # Number of instructions issued per FU type, per thread (Count)
system.cpu.statIssuedInstType_0::SimdAddAcc            0      0.00%     66.45% # Number of instructions issued per FU type, per thread (Count)
system.cpu.statIssuedInstType_0::SimdAlu       131135      0.22%     66.67% # Number of instructions issued per FU type, per thread (Count)
system.cpu.statIssuedInstType_0::SimdCmp       131136      0.22%     66.89% # Number of instructions issued per FU type, per thread (Count)
system.cpu.statIssuedInstType_0::SimdCvt            0      0.00%     66.89% # Number of instructions issued per FU type, per thread (Count)
system.cpu.statIssuedInstType_0::SimdMisc        98354      0.16%     67.05% # Number of instructions issued per FU type, per thread (Count)
system.cpu.statIssuedInstType_0::SimdMult            0      0.00%     67.05% # Number of instructions issued per FU type, per thread (Count)
system.cpu.statIssuedInstType_0::SimdMultAcc            0      0.00%     67.05% # Number of instructions issued per FU type, per thread (Count)
system.cpu.statIssuedInstType_0::SimdShift            0      0.00%     67.05% # Number of instructions issued per FU type, per thread (Count)
system.cpu.statIssuedInstType_0::SimdShiftAcc            0      0.00%     67.05% # Number of instructions issued per FU type, per thread (Count)
system.cpu.statIssuedInstType_0::SimdDiv            0      0.00%     67.05% # Number of instructions issued per FU type, per thread (Count)
system.cpu.statIssuedInstType_0::SimdSqrt            0      0.00%     67.05% # Number of instructions issued per FU type, per thread (Count)
system.cpu.statIssuedInstType_0::SimdFloatAdd            0      0.00%     67.05% # Number of instructions issued per FU type, per thread (Count)
system.cpu.statIssuedInstType_0::SimdFloatAlu            0      0.00%     67.05% # Number of instructions issued per FU type, per thread (Count)
system.cpu.statIssuedInstType_0::SimdFloatCmp            0      0.00%     67.05% # Number of instructions issued per FU type, per thread (Count)
system.cpu.statIssuedInstType_0::SimdFloatCvt            0      0.00%     67.05% # Number of instructions issued per FU type, per thread (Count)
system.cpu.statIssuedInstType_0::SimdFloatDiv            0      0.00%     67.05% # Number of instructions issued per FU type, per thread (Count)
system.cpu.statIssuedInstType_0::SimdFloatMisc            0      0.00%     67.05% # Number of instructions issued per FU type, per thread (Count)
system.cpu.statIssuedInstType_0::SimdFloatMult            0      0.00%     67.05% # Number of instructions issued per FU type, per thread (Count)
system.cpu.statIssuedInstType_0::SimdFloatMultAcc            0      0.00%     67.05% # Number of instructions issued per FU type, per thread (Count)
system.cpu.statIssuedInstType_0::SimdFloatSqrt            0      0.00%     67.05% # Number of instructions issued per FU type, per thread (Count)
system.cpu.statIssuedInstType_0::SimdReduceAdd            0      0.00%     67.05% # Number of instructions issued per FU type, per thread (Count)
system.cpu.statIssuedInstType_0::SimdReduceAlu            0      0.00%     67.05% # Number of instructions issued per FU type, per thread (Count)
system.cpu.statIssuedInstType_0::SimdReduceCmp            0      0.00%     67.05% # Number of instructions issued per FU type, per thread (Count)
system.cpu.statIssuedInstType_0::SimdFloatReduceAdd            0      0.00%     67.05% # Number of instructions issued per FU type, per thread (Count)
system.cpu.statIssuedInstType_0::SimdFloatReduceCmp            0      0.00%     67.05% # Number of instructions issued per FU type, per thread (Count)
system.cpu.statIssuedInstType_0::SimdAes            0      0.00%     67.05% # Number of instructions issued per FU type, per thread (Count)
system.cpu.statIssuedInstType_0::SimdAesMix            0      0.00%     67.05% # Number of instructions issued per FU type, per thread (Count)
system.cpu.statIssuedInstType_0::SimdSha1Hash            0      0.00%     67.05% # Number of instructions issued per FU type, per thread (Count)
system.cpu.statIssuedInstType_0::SimdSha1Hash2            0      0.00%     67.05% # Number of instructions issued per FU type, per thread (Count)
system.cpu.statIssuedInstType_0::SimdSha256Hash            0      0.00%     67.05% # Number of instructions issued per FU type, per thread (Count)
system.cpu.statIssuedInstType_0::SimdSha256Hash2            0      0.00%     67.05% # Number of instructions issued per FU type, per thread (Count)
system.cpu.statIssuedInstType_0::SimdShaSigma2            0      0.00%     67.05% # Number of instructions issued per FU type, per thread (Count)
system.cpu.statIssuedInstType_0::SimdShaSigma3            0      0.00%     67.05% # Number of instructions issued per FU type, per thread (Count)
system.cpu.statIssuedInstType_0::SimdPredAlu            0      0.00%     67.05% # Number of instructions issued per FU type, per thread (Count)
system.cpu.statIssuedInstType_0::MemRead     12656471     21.05%     88.10% # Number of instructions issued per FU type, per thread (Count)
system.cpu.statIssuedInstType_0::MemWrite      7154621     11.90%    100.00% # Number of instructions issued per FU type, per thread (Count)
system.cpu.statIssuedInstType_0::FloatMemRead            0      0.00%    100.00% # Number of instructions issued per FU type, per thread (Count)
system.cpu.statIssuedInstType_0::FloatMemWrite            0      0.00%    100.00% # Number of instructions issued per FU type, per thread (Count)
system.cpu.statIssuedInstType_0::IprAccess            0      0.00%    100.00% # Number of instructions issued per FU type, per thread (Count)
system.cpu.statIssuedInstType_0::InstPrefetch            0      0.00%    100.00% # Number of instructions issued per FU type, per thread (Count)
system.cpu.statIssuedInstType_0::total       60129346                       # Number of instructions issued per FU type, per thread (Count)
system.cpu.issueRate                         1.950648                       # Inst issue rate ((Count/Cycle))
system.cpu.fuBusy                             1145766                       # FU busy when requested (Count)
system.cpu.fuBusyRate                        0.019055                       # FU busy rate (busy events/executed inst) ((Count/Count))
system.cpu.intInstQueueReads                148600298                       # Number of integer instruction queue reads (Count)
system.cpu.intInstQueueWrites                62738513                       # Number of integer instruction queue writes (Count)
system.cpu.intInstQueueWakeupAccesses        57838663                       # Number of integer instruction queue wakeup accesses (Count)
system.cpu.fpInstQueueReads                         0                       # Number of floating instruction queue reads (Count)
system.cpu.fpInstQueueWrites                        0                       # Number of floating instruction queue writes (Count)
system.cpu.fpInstQueueWakeupAccesses                0                       # Number of floating instruction queue wakeup accesses (Count)
system.cpu.vecInstQueueReads                  2552245                       # Number of vector instruction queue reads (Count)
system.cpu.vecInstQueueWrites                 1605799                       # Number of vector instruction queue writes (Count)
system.cpu.vecInstQueueWakeupAccesses         1119938                       # Number of vector instruction queue wakeup accesses (Count)
system.cpu.intAluAccesses                    59955609                       # Number of integer alu accesses (Count)
system.cpu.fpAluAccesses                            0                       # Number of floating point alu accesses (Count)
system.cpu.vecAluAccesses                     1250607                       # Number of vector alu accesses (Count)
system.cpu.numInsts                          59754752                       # Number of executed instructions (Count)
system.cpu.numLoadInsts                      12575818                       # Number of load instructions executed (Count)
system.cpu.numSquashedInsts                    374594                       # Number of squashed instructions skipped in execute (Count)
system.cpu.numSwp                                   0                       # Number of swp insts executed (Count)
system.cpu.numNop                               44287                       # Number of nop insts executed (Count)
system.cpu.numRefs                           19631012                       # Number of memory reference insts executed (Count)
system.cpu.numBranches                        9381967                       # Number of branches executed (Count)
system.cpu.numStoreInsts                      7055194                       # Number of stores executed (Count)
system.cpu.numRate                           1.938496                       # Inst execution rate ((Count/Cycle))
system.cpu.timesIdled                           58998                       # Number of times that the entire CPU went into an idle state and unscheduled itself (Count)
system.cpu.idleCycles                         1213087                       # Total number of cycles that the CPU has spent unscheduled due to idling (Cycle)
system.cpu.committedInsts                    51647944                       # Number of Instructions Simulated (Count)
system.cpu.committedOps                      56649980                       # Number of Ops (including micro ops) Simulated (Count)
system.cpu.cpi                               0.596835                       # CPI: Cycles Per Instruction ((Cycle/Count))
system.cpu.totalCpi                          0.596835                       # CPI: Total CPI of All Threads ((Cycle/Count))
system.cpu.ipc                               1.675504                       # IPC: Instructions Per Cycle ((Count/Cycle))
system.cpu.totalIpc                          1.675504                       # IPC: Total IPC of All Threads ((Count/Cycle))
system.cpu.intRegfileReads                   71603478                       # Number of integer regfile reads (Count)
system.cpu.intRegfileWrites                  44018076                       # Number of integer regfile writes (Count)
system.cpu.vecRegfileReads                    1274856                       # number of vector regfile reads (Count)
system.cpu.vecRegfileWrites                    640457                       # number of vector regfile writes (Count)
system.cpu.ccRegfileReads                    16356720                       # number of cc regfile reads (Count)
system.cpu.ccRegfileWrites                   16324028                       # number of cc regfile writes (Count)
system.cpu.miscRegfileReads                 112281594                       # number of misc regfile reads (Count)
system.cpu.miscRegfileWrites                   133541                       # number of misc regfile writes (Count)
system.cpu.MemDepUnit__0.insertedLoads       12094473                       # Number of loads inserted to the mem dependence unit. (Count)
system.cpu.MemDepUnit__0.insertedStores       7495979                       # Number of stores inserted to the mem dependence unit. (Count)
system.cpu.MemDepUnit__0.conflictingLoads      2023959                       # Number of conflicting loads. (Count)
system.cpu.MemDepUnit__0.conflictingStores       650777                       # Number of conflicting stores. (Count)
system.cpu.MemDepUnit__1.insertedLoads              0                       # Number of loads inserted to the mem dependence unit. (Count)
system.cpu.MemDepUnit__1.insertedStores             0                       # Number of stores inserted to the mem dependence unit. (Count)
system.cpu.MemDepUnit__1.conflictingLoads            0                       # Number of conflicting loads. (Count)
system.cpu.MemDepUnit__1.conflictingStores            0                       # Number of conflicting stores. (Count)
system.cpu.MemDepUnit__2.insertedLoads              0                       # Number of loads inserted to the mem dependence unit. (Count)
system.cpu.MemDepUnit__2.insertedStores             0                       # Number of stores inserted to the mem dependence unit. (Count)
system.cpu.MemDepUnit__2.conflictingLoads            0                       # Number of conflicting loads. (Count)
system.cpu.MemDepUnit__2.conflictingStores            0                       # Number of conflicting stores. (Count)
system.cpu.MemDepUnit__3.insertedLoads              0                       # Number of loads inserted to the mem dependence unit. (Count)
system.cpu.MemDepUnit__3.insertedStores             0                       # Number of stores inserted to the mem dependence unit. (Count)
system.cpu.MemDepUnit__3.conflictingLoads            0                       # Number of conflicting loads. (Count)
system.cpu.MemDepUnit__3.conflictingStores            0                       # Number of conflicting stores. (Count)
system.cpu.branchPred.lookups                10020507                       # Number of BP lookups (Count)
system.cpu.branchPred.condPredicted           7014736                       # Number of conditional branches predicted (Count)
system.cpu.branchPred.condIncorrect            162306                       # Number of conditional branches incorrect (Count)
system.cpu.branchPred.BTBLookups              5386689                       # Number of BTB lookups (Count)
system.cpu.branchPred.BTBHits                 5314072                       # Number of BTB hits (Count)
system.cpu.branchPred.BTBHitRatio            0.986519                       # BTB Hit Ratio (Ratio)
system.cpu.branchPred.RASUsed                  738932                       # Number of times the RAS was used to get a target. (Count)
system.cpu.branchPred.RASIncorrect                 40                       # Number of incorrect RAS predictions. (Count)
system.cpu.branchPred.indirectLookups          166040                       # Number of indirect predictor lookups. (Count)
system.cpu.branchPred.indirectHits             144440                       # Number of indirect target hits. (Count)
system.cpu.branchPred.indirectMisses            21600                       # Number of indirect misses. (Count)
system.cpu.branchPred.indirectMispredicted          201                       # Number of mispredicted indirect branches. (Count)
system.cpu.commit.commitSquashedInsts         3839508                       # The number of squashed insts skipped by commit (Count)
system.cpu.commit.commitNonSpecStalls           72265                       # The number of times commit has been forced to stall to communicate backwards (Count)
system.cpu.commit.branchMispredicts            122668                       # The number of times a branch was mispredicted (Count)
system.cpu.commit.numCommittedDist::samples     29061413                       # Number of insts commited each cycle (Count)
system.cpu.commit.numCommittedDist::mean     1.950731                       # Number of insts commited each cycle (Count)
system.cpu.commit.numCommittedDist::stdev     2.820207                       # Number of insts commited each cycle (Count)
system.cpu.commit.numCommittedDist::underflows            0      0.00%      0.00% # Number of insts commited each cycle (Count)
system.cpu.commit.numCommittedDist::0        14670439     50.48%     50.48% # Number of insts commited each cycle (Count)
system.cpu.commit.numCommittedDist::1         4516126     15.54%     66.02% # Number of insts commited each cycle (Count)
system.cpu.commit.numCommittedDist::2         2296207      7.90%     73.92% # Number of insts commited each cycle (Count)
system.cpu.commit.numCommittedDist::3         1088593      3.75%     77.67% # Number of insts commited each cycle (Count)
system.cpu.commit.numCommittedDist::4         1112877      3.83%     81.50% # Number of insts commited each cycle (Count)
system.cpu.commit.numCommittedDist::5          271115      0.93%     82.43% # Number of insts commited each cycle (Count)
system.cpu.commit.numCommittedDist::6          971856      3.34%     85.77% # Number of insts commited each cycle (Count)
system.cpu.commit.numCommittedDist::7          395129      1.36%     87.13% # Number of insts commited each cycle (Count)
system.cpu.commit.numCommittedDist::8         3739071     12.87%    100.00% # Number of insts commited each cycle (Count)
system.cpu.commit.numCommittedDist::overflows            0      0.00%    100.00% # Number of insts commited each cycle (Count)
system.cpu.commit.numCommittedDist::min_value            0                       # Number of insts commited each cycle (Count)
system.cpu.commit.numCommittedDist::max_value            8                       # Number of insts commited each cycle (Count)
system.cpu.commit.numCommittedDist::total     29061413                       # Number of insts commited each cycle (Count)
system.cpu.commit.instsCommitted             51688973                       # Number of instructions committed (Count)
system.cpu.commit.opsCommitted               56691009                       # Number of ops (including micro ops) committed (Count)
system.cpu.commit.memRefs                    18166564                       # Number of memory references committed (Count)
system.cpu.commit.loads                      11531150                       # Number of loads committed (Count)
system.cpu.commit.amos                          36102                       # Number of atomic instructions committed (Count)
system.cpu.commit.membars                       36112                       # Number of memory barriers committed (Count)
system.cpu.commit.branches                    9118691                       # Number of branches committed (Count)
system.cpu.commit.vectorInstructions          1000073                       # Number of committed Vector instructions. (Count)
system.cpu.commit.floating                          0                       # Number of committed floating point instructions. (Count)
system.cpu.commit.integer                    50428570                       # Number of committed integer instructions. (Count)
system.cpu.commit.functionCalls                695011                       # Number of function calls committed. (Count)
system.cpu.commit.committedInstType_0::No_OpClass        68885      0.12%      0.12% # Class of committed instruction (Count)
system.cpu.commit.committedInstType_0::IntAlu     37040966     65.34%     65.46% # Class of committed instruction (Count)
system.cpu.commit.committedInstType_0::IntMult       800374      1.41%     66.87% # Class of committed instruction (Count)
system.cpu.commit.committedInstType_0::IntDiv        89172      0.16%     67.03% # Class of committed instruction (Count)
system.cpu.commit.committedInstType_0::FloatAdd         6891      0.01%     67.04% # Class of committed instruction (Count)
system.cpu.commit.committedInstType_0::FloatCmp        32768      0.06%     67.10% # Class of committed instruction (Count)
system.cpu.commit.committedInstType_0::FloatCvt            0      0.00%     67.10% # Class of committed instruction (Count)
system.cpu.commit.committedInstType_0::FloatMult         5253      0.01%     67.11% # Class of committed instruction (Count)
system.cpu.commit.committedInstType_0::FloatMultAcc            0      0.00%     67.11% # Class of committed instruction (Count)
system.cpu.commit.committedInstType_0::FloatDiv            0      0.00%     67.11% # Class of committed instruction (Count)
system.cpu.commit.committedInstType_0::FloatMisc        54066      0.10%     67.20% # Class of committed instruction (Count)
system.cpu.commit.committedInstType_0::FloatSqrt            0      0.00%     67.20% # Class of committed instruction (Count)
system.cpu.commit.committedInstType_0::SimdAdd        65556      0.12%     67.32% # Class of committed instruction (Count)
system.cpu.commit.committedInstType_0::SimdAddAcc            0      0.00%     67.32% # Class of committed instruction (Count)
system.cpu.commit.committedInstType_0::SimdAlu       131098      0.23%     67.55% # Class of committed instruction (Count)
system.cpu.commit.committedInstType_0::SimdCmp       131092      0.23%     67.78% # Class of committed instruction (Count)
system.cpu.commit.committedInstType_0::SimdCvt            0      0.00%     67.78% # Class of committed instruction (Count)
system.cpu.commit.committedInstType_0::SimdMisc        98324      0.17%     67.96% # Class of committed instruction (Count)
system.cpu.commit.committedInstType_0::SimdMult            0      0.00%     67.96% # Class of committed instruction (Count)
system.cpu.commit.committedInstType_0::SimdMultAcc            0      0.00%     67.96% # Class of committed instruction (Count)
system.cpu.commit.committedInstType_0::SimdShift            0      0.00%     67.96% # Class of committed instruction (Count)
system.cpu.commit.committedInstType_0::SimdShiftAcc            0      0.00%     67.96% # Class of committed instruction (Count)
system.cpu.commit.committedInstType_0::SimdDiv            0      0.00%     67.96% # Class of committed instruction (Count)
system.cpu.commit.committedInstType_0::SimdSqrt            0      0.00%     67.96% # Class of committed instruction (Count)
system.cpu.commit.committedInstType_0::SimdFloatAdd            0      0.00%     67.96% # Class of committed instruction (Count)
system.cpu.commit.committedInstType_0::SimdFloatAlu            0      0.00%     67.96% # Class of committed instruction (Count)
system.cpu.commit.committedInstType_0::SimdFloatCmp            0      0.00%     67.96% # Class of committed instruction (Count)
system.cpu.commit.committedInstType_0::SimdFloatCvt            0      0.00%     67.96% # Class of committed instruction (Count)
system.cpu.commit.committedInstType_0::SimdFloatDiv            0      0.00%     67.96% # Class of committed instruction (Count)
system.cpu.commit.committedInstType_0::SimdFloatMisc            0      0.00%     67.96% # Class of committed instruction (Count)
system.cpu.commit.committedInstType_0::SimdFloatMult            0      0.00%     67.96% # Class of committed instruction (Count)
system.cpu.commit.committedInstType_0::SimdFloatMultAcc            0      0.00%     67.96% # Class of committed instruction (Count)
system.cpu.commit.committedInstType_0::SimdFloatSqrt            0      0.00%     67.96% # Class of committed instruction (Count)
system.cpu.commit.committedInstType_0::SimdReduceAdd            0      0.00%     67.96% # Class of committed instruction (Count)
system.cpu.commit.committedInstType_0::SimdReduceAlu            0      0.00%     67.96% # Class of committed instruction (Count)
system.cpu.commit.committedInstType_0::SimdReduceCmp            0      0.00%     67.96% # Class of committed instruction (Count)
system.cpu.commit.committedInstType_0::SimdFloatReduceAdd            0      0.00%     67.96% # Class of committed instruction (Count)
system.cpu.commit.committedInstType_0::SimdFloatReduceCmp            0      0.00%     67.96% # Class of committed instruction (Count)
system.cpu.commit.committedInstType_0::SimdAes            0      0.00%     67.96% # Class of committed instruction (Count)
system.cpu.commit.committedInstType_0::SimdAesMix            0      0.00%     67.96% # Class of committed instruction (Count)
system.cpu.commit.committedInstType_0::SimdSha1Hash            0      0.00%     67.96% # Class of committed instruction (Count)
system.cpu.commit.committedInstType_0::SimdSha1Hash2            0      0.00%     67.96% # Class of committed instruction (Count)
system.cpu.commit.committedInstType_0::SimdSha256Hash            0      0.00%     67.96% # Class of committed instruction (Count)
system.cpu.commit.committedInstType_0::SimdSha256Hash2            0      0.00%     67.96% # Class of committed instruction (Count)
system.cpu.commit.committedInstType_0::SimdShaSigma2            0      0.00%     67.96% # Class of committed instruction (Count)
system.cpu.commit.committedInstType_0::SimdShaSigma3            0      0.00%     67.96% # Class of committed instruction (Count)
system.cpu.commit.committedInstType_0::SimdPredAlu            0      0.00%     67.96% # Class of committed instruction (Count)
system.cpu.commit.committedInstType_0::MemRead     11531150     20.34%     88.30% # Class of committed instruction (Count)
system.cpu.commit.committedInstType_0::MemWrite      6635414     11.70%    100.00% # Class of committed instruction (Count)
system.cpu.commit.committedInstType_0::FloatMemRead            0      0.00%    100.00% # Class of committed instruction (Count)
system.cpu.commit.committedInstType_0::FloatMemWrite            0      0.00%    100.00% # Class of committed instruction (Count)
system.cpu.commit.committedInstType_0::IprAccess            0      0.00%    100.00% # Class of committed instruction (Count)
system.cpu.commit.committedInstType_0::InstPrefetch            0      0.00%    100.00% # Class of committed instruction (Count)
system.cpu.commit.committedInstType_0::total     56691009                       # Class of committed instruction (Count)
system.cpu.commit.commitEligibleSamples       3739071                       # number cycles where commit BW limit reached (Cycle)
system.cpu.dcache.demandHits::cpu.data       15582354                       # number of demand (read+write) hits (Count)
system.cpu.dcache.demandHits::total          15582354                       # number of demand (read+write) hits (Count)
system.cpu.dcache.overallHits::cpu.data      15632701                       # number of overall hits (Count)
system.cpu.dcache.overallHits::total         15632701                       # number of overall hits (Count)
system.cpu.dcache.demandMisses::cpu.data       146259                       # number of demand (read+write) misses (Count)
system.cpu.dcache.demandMisses::total          146259                       # number of demand (read+write) misses (Count)
system.cpu.dcache.overallMisses::cpu.data       146265                       # number of overall misses (Count)
system.cpu.dcache.overallMisses::total         146265                       # number of overall misses (Count)
system.cpu.dcache.demandMissLatency::cpu.data  10340503541                       # number of demand (read+write) miss ticks (Tick)
system.cpu.dcache.demandMissLatency::total  10340503541                       # number of demand (read+write) miss ticks (Tick)
system.cpu.dcache.overallMissLatency::cpu.data  10340503541                       # number of overall miss ticks (Tick)
system.cpu.dcache.overallMissLatency::total  10340503541                       # number of overall miss ticks (Tick)
system.cpu.dcache.demandAccesses::cpu.data     15728613                       # number of demand (read+write) accesses (Count)
system.cpu.dcache.demandAccesses::total      15728613                       # number of demand (read+write) accesses (Count)
system.cpu.dcache.overallAccesses::cpu.data     15778966                       # number of overall (read+write) accesses (Count)
system.cpu.dcache.overallAccesses::total     15778966                       # number of overall (read+write) accesses (Count)
system.cpu.dcache.demandMissRate::cpu.data     0.009299                       # miss rate for demand accesses (Ratio)
system.cpu.dcache.demandMissRate::total      0.009299                       # miss rate for demand accesses (Ratio)
system.cpu.dcache.overallMissRate::cpu.data     0.009270                       # miss rate for overall accesses (Ratio)
system.cpu.dcache.overallMissRate::total     0.009270                       # miss rate for overall accesses (Ratio)
system.cpu.dcache.demandAvgMissLatency::cpu.data 70699.946950                       # average overall miss latency ((Cycle/Count))
system.cpu.dcache.demandAvgMissLatency::total 70699.946950                       # average overall miss latency ((Cycle/Count))
system.cpu.dcache.overallAvgMissLatency::cpu.data 70697.046737                       # average overall miss latency ((Cycle/Count))
system.cpu.dcache.overallAvgMissLatency::total 70697.046737                       # average overall miss latency ((Cycle/Count))
system.cpu.dcache.blockedCycles::no_mshrs       788878                       # number of cycles access was blocked (Cycle)
system.cpu.dcache.blockedCycles::no_targets            0                       # number of cycles access was blocked (Cycle)
system.cpu.dcache.blockedCauses::no_mshrs        17689                       # number of times access was blocked (Count)
system.cpu.dcache.blockedCauses::no_targets            0                       # number of times access was blocked (Count)
system.cpu.dcache.avgBlocked::no_mshrs      44.597094                       # average number of cycles each access was blocked ((Cycle/Count))
system.cpu.dcache.avgBlocked::no_targets          nan                       # average number of cycles each access was blocked ((Cycle/Count))
system.cpu.dcache.writebacks::writebacks        15138                       # number of writebacks (Count)
system.cpu.dcache.writebacks::total             15138                       # number of writebacks (Count)
system.cpu.dcache.demandMshrHits::cpu.data        86705                       # number of demand (read+write) MSHR hits (Count)
system.cpu.dcache.demandMshrHits::total         86705                       # number of demand (read+write) MSHR hits (Count)
system.cpu.dcache.overallMshrHits::cpu.data        86705                       # number of overall MSHR hits (Count)
system.cpu.dcache.overallMshrHits::total        86705                       # number of overall MSHR hits (Count)
system.cpu.dcache.demandMshrMisses::cpu.data        59554                       # number of demand (read+write) MSHR misses (Count)
system.cpu.dcache.demandMshrMisses::total        59554                       # number of demand (read+write) MSHR misses (Count)
system.cpu.dcache.overallMshrMisses::cpu.data        59560                       # number of overall MSHR misses (Count)
system.cpu.dcache.overallMshrMisses::total        59560                       # number of overall MSHR misses (Count)
system.cpu.dcache.demandMshrMissLatency::cpu.data   4046866816                       # number of demand (read+write) MSHR miss ticks (Tick)
system.cpu.dcache.demandMshrMissLatency::total   4046866816                       # number of demand (read+write) MSHR miss ticks (Tick)
system.cpu.dcache.overallMshrMissLatency::cpu.data   4047310316                       # number of overall MSHR miss ticks (Tick)
system.cpu.dcache.overallMshrMissLatency::total   4047310316                       # number of overall MSHR miss ticks (Tick)
system.cpu.dcache.demandMshrMissRate::cpu.data     0.003786                       # mshr miss ratio for demand accesses (Ratio)
system.cpu.dcache.demandMshrMissRate::total     0.003786                       # mshr miss ratio for demand accesses (Ratio)
system.cpu.dcache.overallMshrMissRate::cpu.data     0.003775                       # mshr miss ratio for overall accesses (Ratio)
system.cpu.dcache.overallMshrMissRate::total     0.003775                       # mshr miss ratio for overall accesses (Ratio)
system.cpu.dcache.demandAvgMshrMissLatency::cpu.data 67952.896800                       # average overall mshr miss latency ((Cycle/Count))
system.cpu.dcache.demandAvgMshrMissLatency::total 67952.896800                       # average overall mshr miss latency ((Cycle/Count))
system.cpu.dcache.overallAvgMshrMissLatency::cpu.data 67953.497582                       # average overall mshr miss latency ((Cycle/Count))
system.cpu.dcache.overallAvgMshrMissLatency::total 67953.497582                       # average overall mshr miss latency ((Cycle/Count))
system.cpu.dcache.replacements                  59051                       # number of replacements (Count)
system.cpu.dcache.LoadLockedReq.hits::cpu.data           39                       # number of LoadLockedReq hits (Count)
system.cpu.dcache.LoadLockedReq.hits::total           39                       # number of LoadLockedReq hits (Count)
system.cpu.dcache.LoadLockedReq.misses::cpu.data            4                       # number of LoadLockedReq misses (Count)
system.cpu.dcache.LoadLockedReq.misses::total            4                       # number of LoadLockedReq misses (Count)
system.cpu.dcache.LoadLockedReq.missLatency::cpu.data       359000                       # number of LoadLockedReq miss ticks (Tick)
system.cpu.dcache.LoadLockedReq.missLatency::total       359000                       # number of LoadLockedReq miss ticks (Tick)
system.cpu.dcache.LoadLockedReq.accesses::cpu.data           43                       # number of LoadLockedReq accesses(hits+misses) (Count)
system.cpu.dcache.LoadLockedReq.accesses::total           43                       # number of LoadLockedReq accesses(hits+misses) (Count)
system.cpu.dcache.LoadLockedReq.missRate::cpu.data     0.093023                       # miss rate for LoadLockedReq accesses (Ratio)
system.cpu.dcache.LoadLockedReq.missRate::total     0.093023                       # miss rate for LoadLockedReq accesses (Ratio)
system.cpu.dcache.LoadLockedReq.avgMissLatency::cpu.data        89750                       # average LoadLockedReq miss latency ((Tick/Count))
system.cpu.dcache.LoadLockedReq.avgMissLatency::total        89750                       # average LoadLockedReq miss latency ((Tick/Count))
system.cpu.dcache.LoadLockedReq.mshrHits::cpu.data            1                       # number of LoadLockedReq MSHR hits (Count)
system.cpu.dcache.LoadLockedReq.mshrHits::total            1                       # number of LoadLockedReq MSHR hits (Count)
system.cpu.dcache.LoadLockedReq.mshrMisses::cpu.data            3                       # number of LoadLockedReq MSHR misses (Count)
system.cpu.dcache.LoadLockedReq.mshrMisses::total            3                       # number of LoadLockedReq MSHR misses (Count)
system.cpu.dcache.LoadLockedReq.mshrMissLatency::cpu.data       338500                       # number of LoadLockedReq MSHR miss ticks (Tick)
system.cpu.dcache.LoadLockedReq.mshrMissLatency::total       338500                       # number of LoadLockedReq MSHR miss ticks (Tick)
system.cpu.dcache.LoadLockedReq.mshrMissRate::cpu.data     0.069767                       # mshr miss rate for LoadLockedReq accesses (Ratio)
system.cpu.dcache.LoadLockedReq.mshrMissRate::total     0.069767                       # mshr miss rate for LoadLockedReq accesses (Ratio)
system.cpu.dcache.LoadLockedReq.avgMshrMissLatency::cpu.data 112833.333333                       # average LoadLockedReq mshr miss latency ((Tick/Count))
system.cpu.dcache.LoadLockedReq.avgMshrMissLatency::total 112833.333333                       # average LoadLockedReq mshr miss latency ((Tick/Count))
system.cpu.dcache.ReadReq.hits::cpu.data      9050917                       # number of ReadReq hits (Count)
system.cpu.dcache.ReadReq.hits::total         9050917                       # number of ReadReq hits (Count)
system.cpu.dcache.ReadReq.misses::cpu.data        78388                       # number of ReadReq misses (Count)
system.cpu.dcache.ReadReq.misses::total         78388                       # number of ReadReq misses (Count)
system.cpu.dcache.ReadReq.missLatency::cpu.data   5561855500                       # number of ReadReq miss ticks (Tick)
system.cpu.dcache.ReadReq.missLatency::total   5561855500                       # number of ReadReq miss ticks (Tick)
system.cpu.dcache.ReadReq.accesses::cpu.data      9129305                       # number of ReadReq accesses(hits+misses) (Count)
system.cpu.dcache.ReadReq.accesses::total      9129305                       # number of ReadReq accesses(hits+misses) (Count)
system.cpu.dcache.ReadReq.missRate::cpu.data     0.008586                       # miss rate for ReadReq accesses (Ratio)
system.cpu.dcache.ReadReq.missRate::total     0.008586                       # miss rate for ReadReq accesses (Ratio)
system.cpu.dcache.ReadReq.avgMissLatency::cpu.data 70952.894576                       # average ReadReq miss latency ((Tick/Count))
system.cpu.dcache.ReadReq.avgMissLatency::total 70952.894576                       # average ReadReq miss latency ((Tick/Count))
system.cpu.dcache.ReadReq.mshrHits::cpu.data        30197                       # number of ReadReq MSHR hits (Count)
system.cpu.dcache.ReadReq.mshrHits::total        30197                       # number of ReadReq MSHR hits (Count)
system.cpu.dcache.ReadReq.mshrMisses::cpu.data        48191                       # number of ReadReq MSHR misses (Count)
system.cpu.dcache.ReadReq.mshrMisses::total        48191                       # number of ReadReq MSHR misses (Count)
system.cpu.dcache.ReadReq.mshrMissLatency::cpu.data   3158914000                       # number of ReadReq MSHR miss ticks (Tick)
system.cpu.dcache.ReadReq.mshrMissLatency::total   3158914000                       # number of ReadReq MSHR miss ticks (Tick)
system.cpu.dcache.ReadReq.mshrMissRate::cpu.data     0.005279                       # mshr miss rate for ReadReq accesses (Ratio)
system.cpu.dcache.ReadReq.mshrMissRate::total     0.005279                       # mshr miss rate for ReadReq accesses (Ratio)
system.cpu.dcache.ReadReq.avgMshrMissLatency::cpu.data 65549.874458                       # average ReadReq mshr miss latency ((Tick/Count))
system.cpu.dcache.ReadReq.avgMshrMissLatency::total 65549.874458                       # average ReadReq mshr miss latency ((Tick/Count))
system.cpu.dcache.SoftPFReq.hits::cpu.data        50347                       # number of SoftPFReq hits (Count)
system.cpu.dcache.SoftPFReq.hits::total         50347                       # number of SoftPFReq hits (Count)
system.cpu.dcache.SoftPFReq.misses::cpu.data            6                       # number of SoftPFReq misses (Count)
system.cpu.dcache.SoftPFReq.misses::total            6                       # number of SoftPFReq misses (Count)
system.cpu.dcache.SoftPFReq.accesses::cpu.data        50353                       # number of SoftPFReq accesses(hits+misses) (Count)
system.cpu.dcache.SoftPFReq.accesses::total        50353                       # number of SoftPFReq accesses(hits+misses) (Count)
system.cpu.dcache.SoftPFReq.missRate::cpu.data     0.000119                       # miss rate for SoftPFReq accesses (Ratio)
system.cpu.dcache.SoftPFReq.missRate::total     0.000119                       # miss rate for SoftPFReq accesses (Ratio)
system.cpu.dcache.SoftPFReq.mshrMisses::cpu.data            6                       # number of SoftPFReq MSHR misses (Count)
system.cpu.dcache.SoftPFReq.mshrMisses::total            6                       # number of SoftPFReq MSHR misses (Count)
system.cpu.dcache.SoftPFReq.mshrMissLatency::cpu.data       443500                       # number of SoftPFReq MSHR miss ticks (Tick)
system.cpu.dcache.SoftPFReq.mshrMissLatency::total       443500                       # number of SoftPFReq MSHR miss ticks (Tick)
system.cpu.dcache.SoftPFReq.mshrMissRate::cpu.data     0.000119                       # mshr miss rate for SoftPFReq accesses (Ratio)
system.cpu.dcache.SoftPFReq.mshrMissRate::total     0.000119                       # mshr miss rate for SoftPFReq accesses (Ratio)
system.cpu.dcache.SoftPFReq.avgMshrMissLatency::cpu.data 73916.666667                       # average SoftPFReq mshr miss latency ((Tick/Count))
system.cpu.dcache.SoftPFReq.avgMshrMissLatency::total 73916.666667                       # average SoftPFReq mshr miss latency ((Tick/Count))
system.cpu.dcache.StoreCondReq.hits::cpu.data           10                       # number of StoreCondReq hits (Count)
system.cpu.dcache.StoreCondReq.hits::total           10                       # number of StoreCondReq hits (Count)
system.cpu.dcache.StoreCondReq.accesses::cpu.data           10                       # number of StoreCondReq accesses(hits+misses) (Count)
system.cpu.dcache.StoreCondReq.accesses::total           10                       # number of StoreCondReq accesses(hits+misses) (Count)
system.cpu.dcache.SwapReq.hits::cpu.data        36101                       # number of SwapReq hits (Count)
system.cpu.dcache.SwapReq.hits::total           36101                       # number of SwapReq hits (Count)
system.cpu.dcache.SwapReq.misses::cpu.data            1                       # number of SwapReq misses (Count)
system.cpu.dcache.SwapReq.misses::total             1                       # number of SwapReq misses (Count)
system.cpu.dcache.SwapReq.missLatency::cpu.data       108000                       # number of SwapReq miss ticks (Tick)
system.cpu.dcache.SwapReq.missLatency::total       108000                       # number of SwapReq miss ticks (Tick)
system.cpu.dcache.SwapReq.accesses::cpu.data        36102                       # number of SwapReq accesses(hits+misses) (Count)
system.cpu.dcache.SwapReq.accesses::total        36102                       # number of SwapReq accesses(hits+misses) (Count)
system.cpu.dcache.SwapReq.missRate::cpu.data     0.000028                       # miss rate for SwapReq accesses (Ratio)
system.cpu.dcache.SwapReq.missRate::total     0.000028                       # miss rate for SwapReq accesses (Ratio)
system.cpu.dcache.SwapReq.avgMissLatency::cpu.data       108000                       # average SwapReq miss latency ((Tick/Count))
system.cpu.dcache.SwapReq.avgMissLatency::total       108000                       # average SwapReq miss latency ((Tick/Count))
system.cpu.dcache.SwapReq.mshrHits::cpu.data            1                       # number of SwapReq MSHR hits (Count)
system.cpu.dcache.SwapReq.mshrHits::total            1                       # number of SwapReq MSHR hits (Count)
system.cpu.dcache.WriteLineReq.misses::cpu.data         2054                       # number of WriteLineReq misses (Count)
system.cpu.dcache.WriteLineReq.misses::total         2054                       # number of WriteLineReq misses (Count)
system.cpu.dcache.WriteLineReq.missLatency::cpu.data     39781912                       # number of WriteLineReq miss ticks (Tick)
system.cpu.dcache.WriteLineReq.missLatency::total     39781912                       # number of WriteLineReq miss ticks (Tick)
system.cpu.dcache.WriteLineReq.accesses::cpu.data         2054                       # number of WriteLineReq accesses(hits+misses) (Count)
system.cpu.dcache.WriteLineReq.accesses::total         2054                       # number of WriteLineReq accesses(hits+misses) (Count)
system.cpu.dcache.WriteLineReq.missRate::cpu.data            1                       # miss rate for WriteLineReq accesses (Ratio)
system.cpu.dcache.WriteLineReq.missRate::total            1                       # miss rate for WriteLineReq accesses (Ratio)
system.cpu.dcache.WriteLineReq.avgMissLatency::cpu.data 19368.019474                       # average WriteLineReq miss latency ((Tick/Count))
system.cpu.dcache.WriteLineReq.avgMissLatency::total 19368.019474                       # average WriteLineReq miss latency ((Tick/Count))
system.cpu.dcache.WriteLineReq.mshrMisses::cpu.data         2054                       # number of WriteLineReq MSHR misses (Count)
system.cpu.dcache.WriteLineReq.mshrMisses::total         2054                       # number of WriteLineReq MSHR misses (Count)
system.cpu.dcache.WriteLineReq.mshrMissLatency::cpu.data     37727912                       # number of WriteLineReq MSHR miss ticks (Tick)
system.cpu.dcache.WriteLineReq.mshrMissLatency::total     37727912                       # number of WriteLineReq MSHR miss ticks (Tick)
system.cpu.dcache.WriteLineReq.mshrMissRate::cpu.data            1                       # mshr miss rate for WriteLineReq accesses (Ratio)
system.cpu.dcache.WriteLineReq.mshrMissRate::total            1                       # mshr miss rate for WriteLineReq accesses (Ratio)
system.cpu.dcache.WriteLineReq.avgMshrMissLatency::cpu.data 18368.019474                       # average WriteLineReq mshr miss latency ((Tick/Count))
system.cpu.dcache.WriteLineReq.avgMshrMissLatency::total 18368.019474                       # average WriteLineReq mshr miss latency ((Tick/Count))
system.cpu.dcache.WriteReq.hits::cpu.data      6531437                       # number of WriteReq hits (Count)
system.cpu.dcache.WriteReq.hits::total        6531437                       # number of WriteReq hits (Count)
system.cpu.dcache.WriteReq.misses::cpu.data        65817                       # number of WriteReq misses (Count)
system.cpu.dcache.WriteReq.misses::total        65817                       # number of WriteReq misses (Count)
system.cpu.dcache.WriteReq.missLatency::cpu.data   4738866129                       # number of WriteReq miss ticks (Tick)
system.cpu.dcache.WriteReq.missLatency::total   4738866129                       # number of WriteReq miss ticks (Tick)
system.cpu.dcache.WriteReq.accesses::cpu.data      6597254                       # number of WriteReq accesses(hits+misses) (Count)
system.cpu.dcache.WriteReq.accesses::total      6597254                       # number of WriteReq accesses(hits+misses) (Count)
system.cpu.dcache.WriteReq.missRate::cpu.data     0.009976                       # miss rate for WriteReq accesses (Ratio)
system.cpu.dcache.WriteReq.missRate::total     0.009976                       # miss rate for WriteReq accesses (Ratio)
system.cpu.dcache.WriteReq.avgMissLatency::cpu.data 72000.640093                       # average WriteReq miss latency ((Tick/Count))
system.cpu.dcache.WriteReq.avgMissLatency::total 72000.640093                       # average WriteReq miss latency ((Tick/Count))
system.cpu.dcache.WriteReq.mshrHits::cpu.data        56508                       # number of WriteReq MSHR hits (Count)
system.cpu.dcache.WriteReq.mshrHits::total        56508                       # number of WriteReq MSHR hits (Count)
system.cpu.dcache.WriteReq.mshrMisses::cpu.data         9309                       # number of WriteReq MSHR misses (Count)
system.cpu.dcache.WriteReq.mshrMisses::total         9309                       # number of WriteReq MSHR misses (Count)
system.cpu.dcache.WriteReq.mshrMissLatency::cpu.data    850224904                       # number of WriteReq MSHR miss ticks (Tick)
system.cpu.dcache.WriteReq.mshrMissLatency::total    850224904                       # number of WriteReq MSHR miss ticks (Tick)
system.cpu.dcache.WriteReq.mshrMissRate::cpu.data     0.001411                       # mshr miss rate for WriteReq accesses (Ratio)
system.cpu.dcache.WriteReq.mshrMissRate::total     0.001411                       # mshr miss rate for WriteReq accesses (Ratio)
system.cpu.dcache.WriteReq.avgMshrMissLatency::cpu.data 91333.645290                       # average WriteReq mshr miss latency ((Tick/Count))
system.cpu.dcache.WriteReq.avgMshrMissLatency::total 91333.645290                       # average WriteReq mshr miss latency ((Tick/Count))
system.cpu.dcache.power_state.pwrStateResidencyTicks::UNDEFINED  15412656500                       # Cumulative time (in ticks) in various power states (Tick)
system.cpu.dcache.tags.tagsInUse           511.042956                       # Average ticks per tags in use ((Tick/Count))
system.cpu.dcache.tags.totalRefs             15728414                       # Total number of references to valid blocks. (Count)
system.cpu.dcache.tags.sampledRefs              59563                       # Sample count of references to valid blocks. (Count)
system.cpu.dcache.tags.avgRefs             264.063496                       # Average number of references to valid blocks. ((Count/Count))
system.cpu.dcache.tags.warmupTick              145000                       # The tick when the warmup percentage was hit. (Tick)
system.cpu.dcache.tags.occupancies::cpu.data   511.042956                       # Average occupied blocks per tick, per requestor ((Count/Tick))
system.cpu.dcache.tags.avgOccs::cpu.data     0.998131                       # Average percentage of cache occupancy ((Ratio/Tick))
system.cpu.dcache.tags.avgOccs::total        0.998131                       # Average percentage of cache occupancy ((Ratio/Tick))
system.cpu.dcache.tags.occupanciesTaskId::1024          512                       # Occupied blocks per task id (Count)
system.cpu.dcache.tags.ageTaskId_1024::0           74                       # Occupied blocks per task id, per block age (Count)
system.cpu.dcache.tags.ageTaskId_1024::1           12                       # Occupied blocks per task id, per block age (Count)
system.cpu.dcache.tags.ageTaskId_1024::2          128                       # Occupied blocks per task id, per block age (Count)
system.cpu.dcache.tags.ageTaskId_1024::3          136                       # Occupied blocks per task id, per block age (Count)
system.cpu.dcache.tags.ageTaskId_1024::4          162                       # Occupied blocks per task id, per block age (Count)
system.cpu.dcache.tags.ratioOccsTaskId::1024            1                       # Ratio of occupied blocks and all blocks, per task id (Ratio)
system.cpu.dcache.tags.tagAccesses           31689805                       # Number of tag accesses (Count)
system.cpu.dcache.tags.dataAccesses          31689805                       # Number of data accesses (Count)
system.cpu.dcache.tags.power_state.pwrStateResidencyTicks::UNDEFINED  15412656500                       # Cumulative time (in ticks) in various power states (Tick)
system.cpu.decode.idleCycles                  8801631                       # Number of cycles decode is idle (Cycle)
system.cpu.decode.blockedCycles               9328895                       # Number of cycles decode is blocked (Cycle)
system.cpu.decode.runCycles                  10449474                       # Number of cycles decode is running (Cycle)
system.cpu.decode.unblockCycles                887667                       # Number of cycles decode is unblocking (Cycle)
system.cpu.decode.squashCycles                 144560                       # Number of cycles decode is squashing (Cycle)
system.cpu.decode.branchResolved              5288605                       # Number of times decode resolved a branch (Count)
system.cpu.decode.branchMispred                 39650                       # Number of times decode detected a branch misprediction (Count)
system.cpu.decode.decodedInsts               61888791                       # Number of instructions handled by decode (Count)
system.cpu.decode.squashedInsts                 39141                       # Number of squashed instructions handled by decode (Count)
system.cpu.fetch.icacheStallCycles           10225479                       # Number of cycles fetch is stalled on an Icache miss (Cycle)
system.cpu.fetch.insts                       56927006                       # Number of instructions fetch has processed (Count)
system.cpu.fetch.branches                    10020507                       # Number of branches that fetch encountered (Count)
system.cpu.fetch.predictedBranches            6197444                       # Number of branches that fetch has predicted taken (Count)
system.cpu.fetch.cycles                      19202437                       # Number of cycles fetch has run and was not squashing or blocked (Cycle)
system.cpu.fetch.squashCycles                  368396                       # Number of cycles fetch has spent squashing (Cycle)
system.cpu.fetch.miscStallCycles                    7                       # Number of cycles fetch has spent waiting on interrupts, or bad addresses, or out of MSHRs (Cycle)
system.cpu.fetch.icacheWaitRetryStallCycles          106                       # Number of stall cycles due to full MSHR (Cycle)
system.cpu.fetch.cacheLines                   8532788                       # Number of cache lines fetched (Count)
system.cpu.fetch.icacheSquashes                 74354                       # Number of outstanding Icache misses that were squashed (Count)
system.cpu.fetch.nisnDist::samples           29612227                       # Number of instructions fetched each cycle (Total) (Count)
system.cpu.fetch.nisnDist::mean              2.132241                       # Number of instructions fetched each cycle (Total) (Count)
system.cpu.fetch.nisnDist::stdev             2.985237                       # Number of instructions fetched each cycle (Total) (Count)
system.cpu.fetch.nisnDist::underflows               0      0.00%      0.00% # Number of instructions fetched each cycle (Total) (Count)
system.cpu.fetch.nisnDist::0                 17240111     58.22%     58.22% # Number of instructions fetched each cycle (Total) (Count)
system.cpu.fetch.nisnDist::1                   917152      3.10%     61.32% # Number of instructions fetched each cycle (Total) (Count)
system.cpu.fetch.nisnDist::2                  1914799      6.47%     67.78% # Number of instructions fetched each cycle (Total) (Count)
system.cpu.fetch.nisnDist::3                  1022940      3.45%     71.24% # Number of instructions fetched each cycle (Total) (Count)
system.cpu.fetch.nisnDist::4                  1585671      5.35%     76.59% # Number of instructions fetched each cycle (Total) (Count)
system.cpu.fetch.nisnDist::5                   969472      3.27%     79.87% # Number of instructions fetched each cycle (Total) (Count)
system.cpu.fetch.nisnDist::6                  1494257      5.05%     84.91% # Number of instructions fetched each cycle (Total) (Count)
system.cpu.fetch.nisnDist::7                   573354      1.94%     86.85% # Number of instructions fetched each cycle (Total) (Count)
system.cpu.fetch.nisnDist::8                  3894471     13.15%    100.00% # Number of instructions fetched each cycle (Total) (Count)
system.cpu.fetch.nisnDist::overflows                0      0.00%    100.00% # Number of instructions fetched each cycle (Total) (Count)
system.cpu.fetch.nisnDist::min_value                0                       # Number of instructions fetched each cycle (Total) (Count)
system.cpu.fetch.nisnDist::max_value                8                       # Number of instructions fetched each cycle (Total) (Count)
system.cpu.fetch.nisnDist::total             29612227                       # Number of instructions fetched each cycle (Total) (Count)
system.cpu.fetch.branchRate                  0.325074                       # Number of branch fetches per cycle (Ratio)
system.cpu.fetch.rate                        1.846762                       # Number of inst fetches per cycle ((Count/Cycle))
system.cpu.icache.demandHits::cpu.inst        8462251                       # number of demand (read+write) hits (Count)
system.cpu.icache.demandHits::total           8462251                       # number of demand (read+write) hits (Count)
system.cpu.icache.overallHits::cpu.inst       8462251                       # number of overall hits (Count)
system.cpu.icache.overallHits::total          8462251                       # number of overall hits (Count)
system.cpu.icache.demandMisses::cpu.inst        70537                       # number of demand (read+write) misses (Count)
system.cpu.icache.demandMisses::total           70537                       # number of demand (read+write) misses (Count)
system.cpu.icache.overallMisses::cpu.inst        70537                       # number of overall misses (Count)
system.cpu.icache.overallMisses::total          70537                       # number of overall misses (Count)
system.cpu.icache.demandMissLatency::cpu.inst   1683977497                       # number of demand (read+write) miss ticks (Tick)
system.cpu.icache.demandMissLatency::total   1683977497                       # number of demand (read+write) miss ticks (Tick)
system.cpu.icache.overallMissLatency::cpu.inst   1683977497                       # number of overall miss ticks (Tick)
system.cpu.icache.overallMissLatency::total   1683977497                       # number of overall miss ticks (Tick)
system.cpu.icache.demandAccesses::cpu.inst      8532788                       # number of demand (read+write) accesses (Count)
system.cpu.icache.demandAccesses::total       8532788                       # number of demand (read+write) accesses (Count)
system.cpu.icache.overallAccesses::cpu.inst      8532788                       # number of overall (read+write) accesses (Count)
system.cpu.icache.overallAccesses::total      8532788                       # number of overall (read+write) accesses (Count)
system.cpu.icache.demandMissRate::cpu.inst     0.008267                       # miss rate for demand accesses (Ratio)
system.cpu.icache.demandMissRate::total      0.008267                       # miss rate for demand accesses (Ratio)
system.cpu.icache.overallMissRate::cpu.inst     0.008267                       # miss rate for overall accesses (Ratio)
system.cpu.icache.overallMissRate::total     0.008267                       # miss rate for overall accesses (Ratio)
system.cpu.icache.demandAvgMissLatency::cpu.inst 23873.676184                       # average overall miss latency ((Cycle/Count))
system.cpu.icache.demandAvgMissLatency::total 23873.676184                       # average overall miss latency ((Cycle/Count))
system.cpu.icache.overallAvgMissLatency::cpu.inst 23873.676184                       # average overall miss latency ((Cycle/Count))
system.cpu.icache.overallAvgMissLatency::total 23873.676184                       # average overall miss latency ((Cycle/Count))
system.cpu.icache.blockedCycles::no_mshrs         1206                       # number of cycles access was blocked (Cycle)
system.cpu.icache.blockedCycles::no_targets            0                       # number of cycles access was blocked (Cycle)
system.cpu.icache.blockedCauses::no_mshrs           19                       # number of times access was blocked (Count)
system.cpu.icache.blockedCauses::no_targets            0                       # number of times access was blocked (Count)
system.cpu.icache.avgBlocked::no_mshrs      63.473684                       # average number of cycles each access was blocked ((Cycle/Count))
system.cpu.icache.avgBlocked::no_targets          nan                       # average number of cycles each access was blocked ((Cycle/Count))
system.cpu.icache.writebacks::writebacks        64852                       # number of writebacks (Count)
system.cpu.icache.writebacks::total             64852                       # number of writebacks (Count)
system.cpu.icache.demandMshrHits::cpu.inst         5184                       # number of demand (read+write) MSHR hits (Count)
system.cpu.icache.demandMshrHits::total          5184                       # number of demand (read+write) MSHR hits (Count)
system.cpu.icache.overallMshrHits::cpu.inst         5184                       # number of overall MSHR hits (Count)
system.cpu.icache.overallMshrHits::total         5184                       # number of overall MSHR hits (Count)
system.cpu.icache.demandMshrMisses::cpu.inst        65353                       # number of demand (read+write) MSHR misses (Count)
system.cpu.icache.demandMshrMisses::total        65353                       # number of demand (read+write) MSHR misses (Count)
system.cpu.icache.overallMshrMisses::cpu.inst        65353                       # number of overall MSHR misses (Count)
system.cpu.icache.overallMshrMisses::total        65353                       # number of overall MSHR misses (Count)
system.cpu.icache.demandMshrMissLatency::cpu.inst   1531804499                       # number of demand (read+write) MSHR miss ticks (Tick)
system.cpu.icache.demandMshrMissLatency::total   1531804499                       # number of demand (read+write) MSHR miss ticks (Tick)
system.cpu.icache.overallMshrMissLatency::cpu.inst   1531804499                       # number of overall MSHR miss ticks (Tick)
system.cpu.icache.overallMshrMissLatency::total   1531804499                       # number of overall MSHR miss ticks (Tick)
system.cpu.icache.demandMshrMissRate::cpu.inst     0.007659                       # mshr miss ratio for demand accesses (Ratio)
system.cpu.icache.demandMshrMissRate::total     0.007659                       # mshr miss ratio for demand accesses (Ratio)
system.cpu.icache.overallMshrMissRate::cpu.inst     0.007659                       # mshr miss ratio for overall accesses (Ratio)
system.cpu.icache.overallMshrMissRate::total     0.007659                       # mshr miss ratio for overall accesses (Ratio)
system.cpu.icache.demandAvgMshrMissLatency::cpu.inst 23438.931633                       # average overall mshr miss latency ((Cycle/Count))
system.cpu.icache.demandAvgMshrMissLatency::total 23438.931633                       # average overall mshr miss latency ((Cycle/Count))
system.cpu.icache.overallAvgMshrMissLatency::cpu.inst 23438.931633                       # average overall mshr miss latency ((Cycle/Count))
system.cpu.icache.overallAvgMshrMissLatency::total 23438.931633                       # average overall mshr miss latency ((Cycle/Count))
system.cpu.icache.replacements                  64852                       # number of replacements (Count)
system.cpu.icache.ReadReq.hits::cpu.inst      8462251                       # number of ReadReq hits (Count)
system.cpu.icache.ReadReq.hits::total         8462251                       # number of ReadReq hits (Count)
system.cpu.icache.ReadReq.misses::cpu.inst        70537                       # number of ReadReq misses (Count)
system.cpu.icache.ReadReq.misses::total         70537                       # number of ReadReq misses (Count)
system.cpu.icache.ReadReq.missLatency::cpu.inst   1683977497                       # number of ReadReq miss ticks (Tick)
system.cpu.icache.ReadReq.missLatency::total   1683977497                       # number of ReadReq miss ticks (Tick)
system.cpu.icache.ReadReq.accesses::cpu.inst      8532788                       # number of ReadReq accesses(hits+misses) (Count)
system.cpu.icache.ReadReq.accesses::total      8532788                       # number of ReadReq accesses(hits+misses) (Count)
system.cpu.icache.ReadReq.missRate::cpu.inst     0.008267                       # miss rate for ReadReq accesses (Ratio)
system.cpu.icache.ReadReq.missRate::total     0.008267                       # miss rate for ReadReq accesses (Ratio)
system.cpu.icache.ReadReq.avgMissLatency::cpu.inst 23873.676184                       # average ReadReq miss latency ((Tick/Count))
system.cpu.icache.ReadReq.avgMissLatency::total 23873.676184                       # average ReadReq miss latency ((Tick/Count))
system.cpu.icache.ReadReq.mshrHits::cpu.inst         5184                       # number of ReadReq MSHR hits (Count)
system.cpu.icache.ReadReq.mshrHits::total         5184                       # number of ReadReq MSHR hits (Count)
system.cpu.icache.ReadReq.mshrMisses::cpu.inst        65353                       # number of ReadReq MSHR misses (Count)
system.cpu.icache.ReadReq.mshrMisses::total        65353                       # number of ReadReq MSHR misses (Count)
system.cpu.icache.ReadReq.mshrMissLatency::cpu.inst   1531804499                       # number of ReadReq MSHR miss ticks (Tick)
system.cpu.icache.ReadReq.mshrMissLatency::total   1531804499                       # number of ReadReq MSHR miss ticks (Tick)
system.cpu.icache.ReadReq.mshrMissRate::cpu.inst     0.007659                       # mshr miss rate for ReadReq accesses (Ratio)
system.cpu.icache.ReadReq.mshrMissRate::total     0.007659                       # mshr miss rate for ReadReq accesses (Ratio)
system.cpu.icache.ReadReq.avgMshrMissLatency::cpu.inst 23438.931633                       # average ReadReq mshr miss latency ((Tick/Count))
system.cpu.icache.ReadReq.avgMshrMissLatency::total 23438.931633                       # average ReadReq mshr miss latency ((Tick/Count))
system.cpu.icache.power_state.pwrStateResidencyTicks::UNDEFINED  15412656500                       # Cumulative time (in ticks) in various power states (Tick)
system.cpu.icache.tags.tagsInUse           496.573078                       # Average ticks per tags in use ((Tick/Count))
system.cpu.icache.tags.totalRefs              8527603                       # Total number of references to valid blocks. (Count)
system.cpu.icache.tags.sampledRefs              65352                       # Sample count of references to valid blocks. (Count)
system.cpu.icache.tags.avgRefs             130.487254                       # Average number of references to valid blocks. ((Count/Count))
system.cpu.icache.tags.warmupTick               77000                       # The tick when the warmup percentage was hit. (Tick)
system.cpu.icache.tags.occupancies::cpu.inst   496.573078                       # Average occupied blocks per tick, per requestor ((Count/Tick))
system.cpu.icache.tags.avgOccs::cpu.inst     0.969869                       # Average percentage of cache occupancy ((Ratio/Tick))
system.cpu.icache.tags.avgOccs::total        0.969869                       # Average percentage of cache occupancy ((Ratio/Tick))
system.cpu.icache.tags.occupanciesTaskId::1024          500                       # Occupied blocks per task id (Count)
system.cpu.icache.tags.ageTaskId_1024::0           96                       # Occupied blocks per task id, per block age (Count)
system.cpu.icache.tags.ageTaskId_1024::2            9                       # Occupied blocks per task id, per block age (Count)
system.cpu.icache.tags.ageTaskId_1024::3            9                       # Occupied blocks per task id, per block age (Count)
system.cpu.icache.tags.ageTaskId_1024::4          386                       # Occupied blocks per task id, per block age (Count)
system.cpu.icache.tags.ratioOccsTaskId::1024     0.976562                       # Ratio of occupied blocks and all blocks, per task id (Ratio)
system.cpu.icache.tags.tagAccesses           17130928                       # Number of tag accesses (Count)
system.cpu.icache.tags.dataAccesses          17130928                       # Number of data accesses (Count)
system.cpu.icache.tags.power_state.pwrStateResidencyTicks::UNDEFINED  15412656500                       # Cumulative time (in ticks) in various power states (Tick)
system.cpu.iew.idleCycles                           0                       # Number of cycles IEW is idle (Cycle)
system.cpu.iew.squashCycles                    144560                       # Number of cycles IEW is squashing (Cycle)
system.cpu.iew.blockCycles                    2026793                       # Number of cycles IEW is blocking (Cycle)
[...]
system.mem_ctrls.dram.bwRead::cpu.inst      271369702                       # Total read bandwidth from this memory ((Byte/Second))
system.mem_ctrls.dram.bwRead::cpu.data      237938476                       # Total read bandwidth from this memory ((Byte/Second))
system.mem_ctrls.dram.bwRead::total         509308178                       # Total read bandwidth from this memory ((Byte/Second))
system.mem_ctrls.dram.bwInstRead::cpu.inst    271369702                       # Instruction read bandwidth from this memory ((Byte/Second))
system.mem_ctrls.dram.bwInstRead::total     271369702                       # Instruction read bandwidth from this memory ((Byte/Second))
system.mem_ctrls.dram.bwWrite::writebacks     62859508                       # Write bandwidth from this memory ((Byte/Second))
system.mem_ctrls.dram.bwWrite::total         62859508                       # Write bandwidth from this memory ((Byte/Second))
system.mem_ctrls.dram.bwTotal::writebacks     62859508                       # Total bandwidth to/from this memory ((Byte/Second))
system.mem_ctrls.dram.bwTotal::cpu.inst     271369702                       # Total bandwidth to/from this memory ((Byte/Second))
system.mem_ctrls.dram.bwTotal::cpu.data     237938476                       # Total bandwidth to/from this memory ((Byte/Second))
system.mem_ctrls.dram.bwTotal::total        572167686                       # Total bandwidth to/from this memory ((Byte/Second))
system.mem_ctrls.dram.readBursts                58986                       # Number of DRAM read bursts (Count)
system.mem_ctrls.dram.writeBursts               17258                       # Number of DRAM write bursts (Count)
system.mem_ctrls.dram.perBankRdBursts::0         1603                       # Per bank write bursts (Count)
system.mem_ctrls.dram.perBankRdBursts::1         1519                       # Per bank write bursts (Count)
system.mem_ctrls.dram.perBankRdBursts::2         1624                       # Per bank write bursts (Count)
system.mem_ctrls.dram.perBankRdBursts::3         1531                       # Per bank write bursts (Count)
system.mem_ctrls.dram.perBankRdBursts::4         1567                       # Per bank write bursts (Count)
system.mem_ctrls.dram.perBankRdBursts::5         2219                       # Per bank write bursts (Count)
system.mem_ctrls.dram.perBankRdBursts::6         2038                       # Per bank write bursts (Count)
system.mem_ctrls.dram.perBankRdBursts::7         1992                       # Per bank write bursts (Count)
system.mem_ctrls.dram.perBankRdBursts::8         1521                       # Per bank write bursts (Count)
system.mem_ctrls.dram.perBankRdBursts::9         1557                       # Per bank write bursts (Count)
system.mem_ctrls.dram.perBankRdBursts::10        18035                       # Per bank write bursts (Count)
system.mem_ctrls.dram.perBankRdBursts::11         1448                       # Per bank write bursts (Count)
system.mem_ctrls.dram.perBankRdBursts::12        17877                       # Per bank write bursts (Count)
system.mem_ctrls.dram.perBankRdBursts::13         1510                       # Per bank write bursts (Count)
system.mem_ctrls.dram.perBankRdBursts::14         1486                       # Per bank write bursts (Count)
system.mem_ctrls.dram.perBankRdBursts::15         1459                       # Per bank write bursts (Count)
system.mem_ctrls.dram.perBankWrBursts::0         1025                       # Per bank write bursts (Count)
system.mem_ctrls.dram.perBankWrBursts::1          917                       # Per bank write bursts (Count)
system.mem_ctrls.dram.perBankWrBursts::2         1027                       # Per bank write bursts (Count)
system.mem_ctrls.dram.perBankWrBursts::3         1024                       # Per bank write bursts (Count)
system.mem_ctrls.dram.perBankWrBursts::4         1034                       # Per bank write bursts (Count)
system.mem_ctrls.dram.perBankWrBursts::5         1279                       # Per bank write bursts (Count)
system.mem_ctrls.dram.perBankWrBursts::6         1274                       # Per bank write bursts (Count)
system.mem_ctrls.dram.perBankWrBursts::7         1334                       # Per bank write bursts (Count)
system.mem_ctrls.dram.perBankWrBursts::8          959                       # Per bank write bursts (Count)
system.mem_ctrls.dram.perBankWrBursts::9         1177                       # Per bank write bursts (Count)
system.mem_ctrls.dram.perBankWrBursts::10          953                       # Per bank write bursts (Count)
system.mem_ctrls.dram.perBankWrBursts::11         1066                       # Per bank write bursts (Count)
system.mem_ctrls.dram.perBankWrBursts::12          921                       # Per bank write bursts (Count)
system.mem_ctrls.dram.perBankWrBursts::13         1394                       # Per bank write bursts (Count)
system.mem_ctrls.dram.perBankWrBursts::14          937                       # Per bank write bursts (Count)
system.mem_ctrls.dram.perBankWrBursts::15          937                       # Per bank write bursts (Count)
system.mem_ctrls.dram.totQLat              1130368750                       # Total ticks spent queuing (Tick)
system.mem_ctrls.dram.totBusLat             294930000                       # Total ticks spent in databus transfers (Tick)
system.mem_ctrls.dram.totMemAccLat         2236356250                       # Total ticks spent from burst creation until serviced by the DRAM (Tick)
system.mem_ctrls.dram.avgQLat                19163.34                       # Average queueing delay per DRAM burst ((Tick/Count))
system.mem_ctrls.dram.avgBusLat               5000.00                       # Average bus latency per DRAM burst ((Tick/Count))
system.mem_ctrls.dram.avgMemAccLat           37913.34                       # Average memory access latency per DRAM burst ((Tick/Count))
system.mem_ctrls.dram.readRowHits               46116                       # Number of row buffer hits during reads (Count)
system.mem_ctrls.dram.writeRowHits              14646                       # Number of row buffer hits during writes (Count)
system.mem_ctrls.dram.readRowHitRate            78.18                       # Row buffer hit rate for reads (Ratio)
system.mem_ctrls.dram.writeRowHitRate           84.86                       # Row buffer hit rate for writes (Ratio)
system.mem_ctrls.dram.bytesPerActivate::samples        15469                       # Bytes accessed per row activation (Byte)
system.mem_ctrls.dram.bytesPerActivate::mean   315.271058                       # Bytes accessed per row activation (Byte)
system.mem_ctrls.dram.bytesPerActivate::gmean   202.916261                       # Bytes accessed per row activation (Byte)
system.mem_ctrls.dram.bytesPerActivate::stdev   294.110076                       # Bytes accessed per row activation (Byte)
system.mem_ctrls.dram.bytesPerActivate::0-127         4453     28.79%     28.79% # Bytes accessed per row activation (Byte)
system.mem_ctrls.dram.bytesPerActivate::128-255         4190     27.09%     55.87% # Bytes accessed per row activation (Byte)
system.mem_ctrls.dram.bytesPerActivate::256-383         2484     16.06%     71.93% # Bytes accessed per row activation (Byte)
system.mem_ctrls.dram.bytesPerActivate::384-511          607      3.92%     75.85% # Bytes accessed per row activation (Byte)
system.mem_ctrls.dram.bytesPerActivate::512-639          538      3.48%     79.33% # Bytes accessed per row activation (Byte)
system.mem_ctrls.dram.bytesPerActivate::640-767          988      6.39%     85.72% # Bytes accessed per row activation (Byte)
system.mem_ctrls.dram.bytesPerActivate::768-895          958      6.19%     91.91% # Bytes accessed per row activation (Byte)
system.mem_ctrls.dram.bytesPerActivate::896-1023          525      3.39%     95.31% # Bytes accessed per row activation (Byte)
system.mem_ctrls.dram.bytesPerActivate::1024-1151          726      4.69%    100.00% # Bytes accessed per row activation (Byte)
system.mem_ctrls.dram.bytesPerActivate::total        15469                       # Bytes accessed per row activation (Byte)
system.mem_ctrls.dram.bytesRead               3775104                       # Total bytes read (Byte)
system.mem_ctrls.dram.bytesWritten            1104512                       # Total bytes written (Byte)
system.mem_ctrls.dram.avgRdBW              244.935323                       # Average DRAM read bandwidth in MiBytes/s ((Byte/Second))
system.mem_ctrls.dram.avgWrBW               71.662662                       # Average DRAM write bandwidth in MiBytes/s ((Byte/Second))
system.mem_ctrls.dram.peakBW                 12800.00                       # Theoretical peak bandwidth in MiByte/s ((Byte/Second))
system.mem_ctrls.dram.busUtil                    2.47                       # Data bus utilization in percentage (Ratio)
system.mem_ctrls.dram.busUtilRead                1.91                       # Data bus utilization in percentage for reads (Ratio)
system.mem_ctrls.dram.busUtilWrite               0.56                       # Data bus utilization in percentage for writes (Ratio)
system.mem_ctrls.dram.pageHitRate               79.69                       # Row buffer hit rate, read and write combined (Ratio)
system.mem_ctrls.dram.power_state.pwrStateResidencyTicks::UNDEFINED  15412656500                       # Cumulative time (in ticks) in various power states (Tick)
system.mem_ctrls.dram.rank0.actEnergy        48073620                       # Energy for activate commands per rank (pJ) (Joule)
system.mem_ctrls.dram.rank0.preEnergy        25532760                       # Energy for precharge commands per rank (pJ) (Joule)
system.mem_ctrls.dram.rank0.readEnergy      100616880                       # Energy for read commands per rank (pJ) (Joule)
system.mem_ctrls.dram.rank0.writeEnergy      46531080                       # Energy for write commands per rank (pJ) (Joule)
system.mem_ctrls.dram.rank0.refreshEnergy 1216372560.000000                       # Energy for refresh commands per rank (pJ) (Joule)
system.mem_ctrls.dram.rank0.actBackEnergy   3626936220                       # Energy for active background per rank (pJ) (Joule)
system.mem_ctrls.dram.rank0.preBackEnergy   2864198400                       # Energy for precharge background per rank (pJ) (Joule)
system.mem_ctrls.dram.rank0.actPowerDownEnergy            0                       # Energy for active power-down per rank (pJ) (Joule)
system.mem_ctrls.dram.rank0.prePowerDownEnergy            0                       # Energy for precharge power-down per rank (pJ) (Joule)
system.mem_ctrls.dram.rank0.selfRefreshEnergy            0                       # Energy for self refresh per rank (pJ) (Joule)
system.mem_ctrls.dram.rank0.totalEnergy    7928261520                       # Total energy per rank (pJ) (Joule)
system.mem_ctrls.dram.rank0.averagePower   514.399417                       # Core power per rank (mW) (Watt)
system.mem_ctrls.dram.rank0.totalIdleTime            0                       # Total Idle time Per DRAM Rank (Tick)
system.mem_ctrls.dram.rank0.pwrStateTime::IDLE   7398082750                       # Time in different power states (Tick)
system.mem_ctrls.dram.rank0.pwrStateTime::REF    514540000                       # Time in different power states (Tick)
system.mem_ctrls.dram.rank0.pwrStateTime::SREF            0                       # Time in different power states (Tick)
system.mem_ctrls.dram.rank0.pwrStateTime::PRE_PDN            0                       # Time in different power states (Tick)
system.mem_ctrls.dram.rank0.pwrStateTime::ACT   7500033750                       # Time in different power states (Tick)
system.mem_ctrls.dram.rank0.pwrStateTime::ACT_PDN            0                       # Time in different power states (Tick)
system.mem_ctrls.dram.rank1.actEnergy        62460720                       # Energy for activate commands per rank (pJ) (Joule)
system.mem_ctrls.dram.rank1.preEnergy        33172095                       # Energy for precharge commands per rank (pJ) (Joule)
system.mem_ctrls.dram.rank1.readEnergy      320536020                       # Energy for read commands per rank (pJ) (Joule)
system.mem_ctrls.dram.rank1.writeEnergy      43555680                       # Energy for write commands per rank (pJ) (Joule)
system.mem_ctrls.dram.rank1.refreshEnergy 1216372560.000000                       # Energy for refresh commands per rank (pJ) (Joule)
system.mem_ctrls.dram.rank1.actBackEnergy   5991676980                       # Energy for active background per rank (pJ) (Joule)
system.mem_ctrls.dram.rank1.preBackEnergy    872837760                       # Energy for precharge background per rank (pJ) (Joule)
system.mem_ctrls.dram.rank1.actPowerDownEnergy            0                       # Energy for active power-down per rank (pJ) (Joule)
system.mem_ctrls.dram.rank1.prePowerDownEnergy            0                       # Energy for precharge power-down per rank (pJ) (Joule)
system.mem_ctrls.dram.rank1.selfRefreshEnergy            0                       # Energy for self refresh per rank (pJ) (Joule)
system.mem_ctrls.dram.rank1.totalEnergy    8540611815                       # Total energy per rank (pJ) (Joule)
system.mem_ctrls.dram.rank1.averagePower   554.129771                       # Core power per rank (mW) (Watt)
system.mem_ctrls.dram.rank1.totalIdleTime            0                       # Total Idle time Per DRAM Rank (Tick)
system.mem_ctrls.dram.rank1.pwrStateTime::IDLE   2208175000                       # Time in different power states (Tick)
system.mem_ctrls.dram.rank1.pwrStateTime::REF    514540000                       # Time in different power states (Tick)
system.mem_ctrls.dram.rank1.pwrStateTime::SREF            0                       # Time in different power states (Tick)
system.mem_ctrls.dram.rank1.pwrStateTime::PRE_PDN            0                       # Time in different power states (Tick)
system.mem_ctrls.dram.rank1.pwrStateTime::ACT  12689941500                       # Time in different power states (Tick)
system.mem_ctrls.dram.rank1.pwrStateTime::ACT_PDN            0                       # Time in different power states (Tick)
system.mem_ctrls.power_state.pwrStateResidencyTicks::UNDEFINED  15412656500                       # Cumulative time (in ticks) in various power states (Tick)
system.membus.transDist::ReadResp              113552                       # Transaction distribution (Count)
system.membus.transDist::WritebackDirty         15138                       # Transaction distribution (Count)
system.membus.transDist::WritebackClean         64852                       # Transaction distribution (Count)
system.membus.transDist::CleanEvict             43913                       # Transaction distribution (Count)
system.membus.transDist::ReadExReq               9101                       # Transaction distribution (Count)
system.membus.transDist::ReadExResp              9101                       # Transaction distribution (Count)
system.membus.transDist::ReadCleanReq           65353                       # Transaction distribution (Count)
system.membus.transDist::ReadSharedReq          48200                       # Transaction distribution (Count)
system.membus.transDist::InvalidateReq           2262                       # Transaction distribution (Count)
system.membus.pktCount_system.cpu.icache.mem_side_port::system.mem_ctrls.port       195557                       # Packet count per connected requestor and responder (Count)
system.membus.pktCount_system.cpu.dcache.mem_side_port::system.mem_ctrls.port       175915                       # Packet count per connected requestor and responder (Count)
system.membus.pktCount::total                  371472                       # Packet count per connected requestor and responder (Count)
system.membus.pktSize_system.cpu.icache.mem_side_port::system.mem_ctrls.port      8333056                       # Cumulative packet size per connected requestor and responder (Byte)
system.membus.pktSize_system.cpu.dcache.mem_side_port::system.mem_ctrls.port      4636096                       # Cumulative packet size per connected requestor and responder (Byte)
system.membus.pktSize::total                 12969152                       # Cumulative packet size per connected requestor and responder (Byte)
system.membus.snoops                                0                       # Total snoops (Count)
system.membus.snoopTraffic                          0                       # Total snoop traffic (Byte)
system.membus.snoopFanout::samples             124916                       # Request fanout histogram (Count)
system.membus.snoopFanout::mean              0.000024                       # Request fanout histogram (Count)
system.membus.snoopFanout::stdev             0.004901                       # Request fanout histogram (Count)
system.membus.snoopFanout::underflows               0      0.00%      0.00% # Request fanout histogram (Count)
system.membus.snoopFanout::0                   124913    100.00%    100.00% # Request fanout histogram (Count)
system.membus.snoopFanout::1                        3      0.00%    100.00% # Request fanout histogram (Count)
system.membus.snoopFanout::2                        0      0.00%    100.00% # Request fanout histogram (Count)
system.membus.snoopFanout::overflows                0      0.00%    100.00% # Request fanout histogram (Count)
system.membus.snoopFanout::min_value                0                       # Request fanout histogram (Count)
system.membus.snoopFanout::max_value                1                       # Request fanout histogram (Count)
system.membus.snoopFanout::total               124916                       # Request fanout histogram (Count)
system.membus.power_state.pwrStateResidencyTicks::UNDEFINED  15412656500                       # Cumulative time (in ticks) in various power states (Tick)
system.membus.reqLayer0.occupancy           592818000                       # Layer occupancy (ticks) (Tick)
system.membus.reqLayer0.utilization               0.0                       # Layer utilization (Ratio)
system.membus.respLayer1.occupancy          327373500                       # Layer occupancy (ticks) (Tick)
system.membus.respLayer1.utilization              0.0                       # Layer utilization (Ratio)
system.membus.respLayer2.occupancy          301539000                       # Layer occupancy (ticks) (Tick)
system.membus.respLayer2.utilization              0.0                       # Layer utilization (Ratio)
system.membus.snoop_filter.totRequests         248822                       # Total number of requests made to the snoop filter. (Count)
system.membus.snoop_filter.hitSingleRequests       123907                       # Number of requests hitting in the snoop filter with a single holder of the requested data. (Count)
system.membus.snoop_filter.hitMultiRequests            2                       # Number of requests hitting in the snoop filter with multiple (>1) holders of the requested data. (Count)
system.membus.snoop_filter.totSnoops                0                       # Total number of snoops made to the snoop filter. (Count)
system.membus.snoop_filter.hitSingleSnoops            0                       # Number of snoops hitting in the snoop filter with a single holder of the requested data. (Count)
system.membus.snoop_filter.hitMultiSnoops            0                       # Number of snoops hitting in the snoop filter with multiple (>1) holders of the requested data. (Count)
system.voltage_domain.voltage                       1                       # Voltage in Volts (Volt)
system.workload.inst.arm                            0                       # number of arm instructions executed (Count)
system.workload.inst.quiesce                        0                       # number of quiesce instructions executed (Count)

---------- End Simulation Statistics   ----------
