
---------- Begin Simulation Statistics ----------
simSeconds                                   0.008574                       # Number of seconds simulated (Second)
simTicks                                   8574259500                       # Number of ticks simulated (Tick)
finalTick                                  8574259500                       # Number of ticks from beginning of simulation (restored from checkpoints and never reset) (Tick)
simFreq                                  1000000000000                       # The number of ticks per simulated second ((Tick/Second))
hostSeconds                                     52.12                       # Real time elapsed on the host (Second)
hostTickRate                                164513078                       # The number of ticks simulated per host second (ticks/s) ((Tick/Second))
hostMemory                                     681512                       # Number of bytes of host memory used (Byte)
simInsts                                     34413794                       # Number of instructions simulated (Count)
simOps                                       38444748                       # Number of ops (including micro ops) simulated (Count)
hostInstRate                                   660291                       # Simulator instruction rate (inst/s) ((Count/Second))
hostOpRate                                     737632                       # Simulator op (including micro ops) rate (op/s) ((Count/Second))
system.clk_domain.clock                          1000                       # Clock period in ticks (Tick)
system.cpu.numCycles                         17148520                       # Number of cpu cycles simulated (Cycle)
system.cpu.numWorkItemsStarted                      0                       # Number of work items this cpu started (Count)
system.cpu.numWorkItemsCompleted                    0                       # Number of work items this cpu completed (Count)
system.cpu.instsAdded                        40625328                       # Number of instructions added to the IQ (excludes non-spec) (Count)
system.cpu.nonSpecInstsAdded                    69155                       # Number of non-speculative instructions added to the IQ (Count)
system.cpu.instsIssued                       40510126                       # Number of instructions issued (Count)
system.cpu.squashedInstsIssued                 123543                       # Number of squashed instructions issued (Count)
system.cpu.squashedInstsExamined              2249734                       # Number of squashed instructions iterated over during squash; mainly for profiling (Count)
system.cpu.squashedOperandsExamined           1724969                       # Number of squashed operands that are examined and possibly removed from graph (Count)
system.cpu.squashedNonSpecRemoved                 165                       # Number of squashed non-spec instructions that were removed (Count)
system.cpu.numIssuedDist::samples            16590276                       # Number of insts issued each cycle (Count)
system.cpu.numIssuedDist::mean               2.441799                       # Number of insts issued each cycle (Count)
system.cpu.numIssuedDist::stdev              2.303482                       # Number of insts issued each cycle (Count)
system.cpu.numIssuedDist::underflows                0      0.00%      0.00% # Number of insts issued each cycle (Count)
system.cpu.numIssuedDist::0                   4813013     29.01%     29.01% # Number of insts issued each cycle (Count)
system.cpu.numIssuedDist::1                   2284721     13.77%     42.78% # Number of insts issued each cycle (Count)
system.cpu.numIssuedDist::2                   2398205     14.46%     57.24% # Number of insts issued each cycle (Count)
system.cpu.numIssuedDist::3                   2119214     12.77%     70.01% # Number of insts issued each cycle (Count)
system.cpu.numIssuedDist::4                   1702967     10.26%     80.28% # Number of insts issued each cycle (Count)
system.cpu.numIssuedDist::5                    988933      5.96%     86.24% # Number of insts issued each cycle (Count)
system.cpu.numIssuedDist::6                   1081516      6.52%     92.76% # Number of insts issued each cycle (Count)
system.cpu.numIssuedDist::7                    787932      4.75%     97.51% # Number of insts issued each cycle (Count)
system.cpu.numIssuedDist::8                    413775      2.49%    100.00% # Number of insts issued each cycle (Count)
system.cpu.numIssuedDist::overflows                 0      0.00%    100.00% # Number of insts issued each cycle (Count)
system.cpu.numIssuedDist::min_value                 0                       # Number of insts issued each cycle (Count)
system.cpu.numIssuedDist::max_value                 8                       # Number of insts issued each cycle (Count)
system.cpu.numIssuedDist::total              16590276                       # Number of insts issued each cycle (Count)
system.cpu.statFuBusy::No_OpClass                   0      0.00%      0.00% # attempts to use FU when none available (Count)
system.cpu.statFuBusy::IntAlu                  163331     15.58%     15.58% # attempts to use FU when none available (Count)
system.cpu.statFuBusy::IntMult                 137820     13.15%     28.73% # attempts to use FU when none available (Count)
system.cpu.statFuBusy::IntDiv                       0      0.00%     28.73% # attempts to use FU when none available (Count)
system.cpu.statFuBusy::FloatAdd                     0      0.00%     28.73% # attempts to use FU when none available (Count)
system.cpu.statFuBusy::FloatCmp                     0      0.00%     28.73% # attempts to use FU when none available (Count)
system.cpu.statFuBusy::FloatCvt                     0      0.00%     28.73% # attempts to use FU when none available (Count)
system.cpu.statFuBusy::FloatMult                    0      0.00%     28.73% # attempts to use FU when none available (Count)
system.cpu.statFuBusy::FloatMultAcc                 0      0.00%     28.73% # attempts to use FU when none available (Count)
system.cpu.statFuBusy::FloatDiv                     0      0.00%     28.73% # attempts to use FU when none available (Count)
system.cpu.statFuBusy::FloatMisc                    0      0.00%     28.73% # attempts to use FU when none available (Count)
system.cpu.statFuBusy::FloatSqrt                    0      0.00%     28.73% # attempts to use FU when none available (Count)
system.cpu.statFuBusy::SimdAdd                      0      0.00%     28.73% # attempts to use FU when none available (Count)
system.cpu.statFuBusy::SimdAddAcc                   0      0.00%     28.73% # attempts to use FU when none available (Count)
system.cpu.statFuBusy::SimdAlu                      1      0.00%     28.73% # attempts to use FU when none available (Count)
system.cpu.statFuBusy::SimdCmp                      1      0.00%     28.73% # attempts to use FU when none available (Count)
system.cpu.statFuBusy::SimdCvt                      0      0.00%     28.73% # attempts to use FU when none available (Count)
system.cpu.statFuBusy::SimdMisc                     0      0.00%     28.73% # attempts to use FU when none available (Count)
system.cpu.statFuBusy::SimdMult                     0      0.00%     28.73% # attempts to use FU when none available (Count)
system.cpu.statFuBusy::SimdMultAcc                  0      0.00%     28.73% # attempts to use FU when none available (Count)
system.cpu.statFuBusy::SimdShift                    0      0.00%     28.73% # attempts to use FU when none available (Count)
system.cpu.statFuBusy::SimdShiftAcc                 0      0.00%     28.73% # attempts to use FU when none available (Count)
system.cpu.statFuBusy::SimdDiv                      0      0.00%     28.73% # attempts to use FU when none available (Count)
system.cpu.statFuBusy::SimdSqrt                     0      0.00%     28.73% # attempts to use FU when none available (Count)
system.cpu.statFuBusy::SimdFloatAdd                 0      0.00%     28.73% # attempts to use FU when none available (Count)
system.cpu.statFuBusy::SimdFloatAlu                 0      0.00%     28.73% # attempts to use FU when none available (Count)
system.cpu.statFuBusy::SimdFloatCmp                 0      0.00%     28.73% # attempts to use FU when none available (Count)
system.cpu.statFuBusy::SimdFloatCvt                 0      0.00%     28.73% # attempts to use FU when none available (Count)
system.cpu.statFuBusy::SimdFloatDiv                 0      0.00%     28.73% # attempts to use FU when none available (Count)
system.cpu.statFuBusy::SimdFloatMisc                0      0.00%     28.73% # attempts to use FU when none available (Count)
system.cpu.statFuBusy::SimdFloatMult                0      0.00%     28.73% # attempts to use FU when none available (Count)
system.cpu.statFuBusy::SimdFloatMultAcc             0      0.00%     28.73% # attempts to use FU when none available (Count)
system.cpu.statFuBusy::SimdFloatSqrt                0      0.00%     28.73% # attempts to use FU when none available (Count)
system.cpu.statFuBusy::SimdReduceAdd                0      0.00%     28.73% # attempts to use FU when none available (Count)
system.cpu.statFuBusy::SimdReduceAlu                0      0.00%     28.73% # attempts to use FU when none available (Count)
system.cpu.statFuBusy::SimdReduceCmp                0      0.00%     28.73% # attempts to use FU when none available (Count)
system.cpu.statFuBusy::SimdFloatReduceAdd            0      0.00%     28.73% # attempts to use FU when none available (Count)
system.cpu.statFuBusy::SimdFloatReduceCmp            0      0.00%     28.73% # attempts to use FU when none available (Count)
system.cpu.statFuBusy::SimdAes                      0      0.00%     28.73% # attempts to use FU when none available (Count)
system.cpu.statFuBusy::SimdAesMix                   0      0.00%     28.73% # attempts to use FU when none available (Count)
system.cpu.statFuBusy::SimdSha1Hash                 0      0.00%     28.73% # attempts to use FU when none available (Count)
system.cpu.statFuBusy::SimdSha1Hash2                0      0.00%     28.73% # attempts to use FU when none available (Count)
system.cpu.statFuBusy::SimdSha256Hash               0      0.00%     28.73% # attempts to use FU when none available (Count)
system.cpu.statFuBusy::SimdSha256Hash2              0      0.00%     28.73% # attempts to use FU when none available (Count)
system.cpu.statFuBusy::SimdShaSigma2                0      0.00%     28.73% # attempts to use FU when none available (Count)
system.cpu.statFuBusy::SimdShaSigma3                0      0.00%     28.73% # attempts to use FU when none available (Count)
system.cpu.statFuBusy::SimdPredAlu                  0      0.00%     28.73% # attempts to use FU when none available (Count)
system.cpu.statFuBusy::MemRead                 391658     37.37%     66.10% # attempts to use FU when none available (Count)
system.cpu.statFuBusy::MemWrite                355247     33.90%    100.00% # attempts to use FU when none available (Count)
system.cpu.statFuBusy::FloatMemRead                 0      0.00%    100.00% # attempts to use FU when none available (Count)
system.cpu.statFuBusy::FloatMemWrite                0      0.00%    100.00% # attempts to use FU when none available (Count)
system.cpu.statFuBusy::IprAccess                    0      0.00%    100.00% # attempts to use FU when none available (Count)
system.cpu.statFuBusy::InstPrefetch                 0      0.00%    100.00% # attempts to use FU when none available (Count)
system.cpu.statIssuedInstType_0::No_OpClass        67258      0.17%      0.17% # Number of instructions issued per FU type, per thread (Count)
system.cpu.statIssuedInstType_0::IntAlu      26587378     65.63%     65.80% # Number of instructions issued per FU type, per thread (Count)
system.cpu.statIssuedInstType_0::IntMult       606546      1.50%     67.29% # Number of instructions issued per FU type, per thread (Count)
system.cpu.statIssuedInstType_0::IntDiv         25942      0.06%     67.36% # Number of instructions issued per FU type, per thread (Count)
system.cpu.statIssuedInstType_0::FloatAdd         2165      0.01%     67.36% # Number of instructions issued per FU type, per thread (Count)
system.cpu.statIssuedInstType_0::FloatCmp        32768      0.08%     67.45% # Number of instructions issued per FU type, per thread (Count)
system.cpu.statIssuedInstType_0::FloatCvt            0      0.00%     67.45% # Number of instructions issued per FU type, per thread (Count)
system.cpu.statIssuedInstType_0::FloatMult         1363      0.00%     67.45% # Number of instructions issued per FU type, per thread (Count)
system.cpu.statIssuedInstType_0::FloatMultAcc            0      0.00%     67.45% # Number of instructions issued per FU type, per thread (Count)
system.cpu.statIssuedInstType_0::FloatDiv            0      0.00%     67.45% # Number of instructions issued per FU type, per thread (Count)
system.cpu.statIssuedInstType_0::FloatMisc        52440      0.13%     67.58% # Number of instructions issued per FU type, per thread (Count)
system.cpu.statIssuedInstType_0::FloatSqrt            0      0.00%     67.58% # Number of instructions issued per FU type, per thread (Count)
system.cpu.statIssuedInstType_0::SimdAdd        65566      0.16%     67.74% # Number of instructions issued per FU type, per thread (Count)
system.cpu.statIssuedInstType_0::SimdAddAcc            0      0.00%     67.74% # Number of instructions issued per FU type, per thread (Count)
system.cpu.statIssuedInstType_0::SimdAlu       131125      0.32%     68.06% # Number of instructions issued per FU type, per thread (Count)
system.cpu.statIssuedInstType_0::SimdCmp       131124      0.32%     68.39% # Number of instructions issued per FU type, per thread (Count)
system.cpu.statIssuedInstType_0::SimdCvt            0      0.00%     68.39% # Number of instructions issued per FU type, per thread (Count)
system.cpu.statIssuedInstType_0::SimdMisc        98343      0.24%     68.63% # Number of instructions issued per FU type, per thread (Count)
system.cpu.statIssuedInstType_0::SimdMult            0      0.00%     68.63% # Number of instructions issued per FU type, per thread (Count)
system.cpu.statIssuedInstType_0::SimdMultAcc            0      0.00%     68.63% # Number of instructions issued per FU type, per thread (Count)
system.cpu.statIssuedInstType_0::SimdShift            0      0.00%     68.63% # Number of instructions issued per FU type, per thread (Count)
system.cpu.statIssuedInstType_0::SimdShiftAcc            0      0.00%     68.63% # Number of instructions issued per FU type, per thread (Count)
system.cpu.statIssuedInstType_0::SimdDiv            0      0.00%     68.63% # Number of instructions issued per FU type, per thread (Count)
system.cpu.statIssuedInstType_0::SimdSqrt            0      0.00%     68.63% # Number of instructions issued per FU type, per thread (Count)
system.cpu.statIssuedInstType_0::SimdFloatAdd            0      0.00%     68.63% # Number of instructions issued per FU type, per thread (Count)
system.cpu.statIssuedInstType_0::SimdFloatAlu            0      0.00%     68.63% # Number of instructions issued per FU type, per thread (Count)
system.cpu.statIssuedInstType_0::SimdFloatCmp            0      0.00%     68.63% # Number of instructions issued per FU type, per thread (Count)
system.cpu.statIssuedInstType_0::SimdFloatCvt            0      0.00%     68.63% # Number of instructions issued per FU type, per thread (Count)
system.cpu.statIssuedInstType_0::SimdFloatDiv            0      0.00%     68.63% # Number of instructions issued per FU type, per thread (Count)
system.cpu.statIssuedInstType_0::SimdFloatMisc            0      0.00%     68.63% # Number of instructions issued per FU type, per thread (Count)
system.cpu.statIssuedInstType_0::SimdFloatMult            0      0.00%     68.63% # Number of instructions issued per FU type, per thread (Count)
system.cpu.statIssuedInstType_0::SimdFloatMultAcc            0      0.00%     68.63% # Number of instructions issued per FU type, per thread (Count)
system.cpu.statIssuedInstType_0::SimdFloatSqrt            0      0.00%     68.63% # Number of instructions issued per FU type, per thread (Count)
system.cpu.statIssuedInstType_0::SimdReduceAdd            0      0.00%     68.63% # Number of instructions issued per FU type, per thread (Count)
system.cpu.statIssuedInstType_0::SimdReduceAlu            0      0.00%     68.63% # Number of instructions issued per FU type, per thread (Count)
system.cpu.statIssuedInstType_0::SimdReduceCmp            0      0.00%     68.63% # Number of instructions issued per FU type, per thread (Count)
system.cpu.statIssuedInstType_0::SimdFloatReduceAdd            0      0.00%     68.63% # Number of instructions issued per FU type, per thread (Count)
system.cpu.statIssuedInstType_0::SimdFloatReduceCmp            0      0.00%     68.63% # Number of instructions issued per FU type, per thread (Count)
system.cpu.statIssuedInstType_0::SimdAes            0      0.00%     68.63% # Number of instructions issued per FU type, per thread (Count)
system.cpu.statIssuedInstType_0::SimdAesMix            0      0.00%     68.63% # Number of instructions issued per FU type, per thread (Count)
system.cpu.statIssuedInstType_0::SimdSha1Hash            0      0.00%     68.63% # Number of instructions issued per FU type, per thread (Count)
system.cpu.statIssuedInstType_0::SimdSha1Hash2            0      0.00%     68.63% # Number of instructions issued per FU type, per thread (Count)
system.cpu.statIssuedInstType_0::SimdSha256Hash            0      0.00%     68.63% # Number of instructions issued per FU type, per thread (Count)
system.cpu.statIssuedInstType_0::SimdSha256Hash2            0      0.00%     68.63% # Number of instructions issued per FU type, per thread (Count)
system.cpu.statIssuedInstType_0::SimdShaSigma2            0      0.00%     68.63% # Number of instructions issued per FU type, per thread (Count)
system.cpu.statIssuedInstType_0::SimdShaSigma3            0      0.00%     68.63% # Number of instructions issued per FU type, per thread (Count)
system.cpu.statIssuedInstType_0::SimdPredAlu            0      0.00%     68.63% # Number of instructions issued per FU type, per thread (Count)
system.cpu.statIssuedInstType_0::MemRead      7201783     17.78%     86.41% # Number of instructions issued per FU type, per thread (Count)
system.cpu.statIssuedInstType_0::MemWrite      5506325     13.59%    100.00% # Number of instructions issued per FU type, per thread (Count)
system.cpu.statIssuedInstType_0::FloatMemRead            0      0.00%    100.00% # Number of instructions issued per FU type, per thread (Count)
system.cpu.statIssuedInstType_0::FloatMemWrite            0      0.00%    100.00% # Number of instructions issued per FU type, per thread (Count)
system.cpu.statIssuedInstType_0::IprAccess            0      0.00%    100.00% # Number of instructions issued per FU type, per thread (Count)
system.cpu.statIssuedInstType_0::InstPrefetch            0      0.00%    100.00% # Number of instructions issued per FU type, per thread (Count)
system.cpu.statIssuedInstType_0::total       40510126                       # Number of instructions issued per FU type, per thread (Count)
system.cpu.issueRate                         2.362310                       # Inst issue rate ((Count/Cycle))
system.cpu.fuBusy                             1048058                       # FU busy when requested (Count)
system.cpu.fuBusyRate                        0.025872                       # FU busy rate (busy events/executed inst) ((Count/Count))
system.cpu.intInstQueueReads                 96332250                       # Number of integer instruction queue reads (Count)
system.cpu.intInstQueueWrites                41421538                       # Number of integer instruction queue writes (Count)
system.cpu.intInstQueueWakeupAccesses        38775254                       # Number of integer instruction queue wakeup accesses (Count)
system.cpu.fpInstQueueReads                         0                       # Number of floating instruction queue reads (Count)
system.cpu.fpInstQueueWrites                        0                       # Number of floating instruction queue writes (Count)
system.cpu.fpInstQueueWakeupAccesses                0                       # Number of floating instruction queue wakeup accesses (Count)
system.cpu.vecInstQueueReads                  2449879                       # Number of vector instruction queue reads (Count)
system.cpu.vecInstQueueWrites                 1541331                       # Number of vector instruction queue writes (Count)
system.cpu.vecInstQueueWakeupAccesses         1076985                       # Number of vector instruction queue wakeup accesses (Count)
system.cpu.intAluAccesses                    40290648                       # Number of integer alu accesses (Count)
system.cpu.fpAluAccesses                            0                       # Number of floating point alu accesses (Count)
system.cpu.vecAluAccesses                     1200278                       # Number of vector alu accesses (Count)
system.cpu.numInsts                          40278317                       # Number of executed instructions (Count)
system.cpu.numLoadInsts                       7160266                       # Number of load instructions executed (Count)
system.cpu.numSquashedInsts                    231809                       # Number of squashed instructions skipped in execute (Count)
system.cpu.numSwp                                   0                       # Number of swp insts executed (Count)
system.cpu.numNop                               37574                       # Number of nop insts executed (Count)
system.cpu.numRefs                           12589837                       # Number of memory reference insts executed (Count)
system.cpu.numBranches                        6293428                       # Number of branches executed (Count)
system.cpu.numStoreInsts                      5429571                       # Number of stores executed (Count)
system.cpu.numRate                           2.348793                       # Inst execution rate ((Count/Cycle))
system.cpu.timesIdled                           22953                       # Number of times that the entire CPU went into an idle state and unscheduled itself (Count)
system.cpu.idleCycles                          558244                       # Total number of cycles that the CPU has spent unscheduled due to idling (Cycle)
system.cpu.committedInsts                    34413794                       # Number of Instructions Simulated (Count)
system.cpu.committedOps                      38444748                       # Number of Ops (including micro ops) Simulated (Count)
system.cpu.cpi                               0.498304                       # CPI: Cycles Per Instruction ((Cycle/Count))
system.cpu.totalCpi                          0.498304                       # CPI: Total CPI of All Threads ((Cycle/Count))
system.cpu.ipc                               2.006808                       # IPC: Instructions Per Cycle ((Count/Cycle))
system.cpu.totalIpc                          2.006808                       # IPC: Total IPC of All Threads ((Count/Cycle))
system.cpu.intRegfileReads                   48924851                       # Number of integer regfile reads (Count)
system.cpu.intRegfileWrites                  29172754                       # Number of integer regfile writes (Count)
system.cpu.vecRegfileReads                    1237811                       # number of vector regfile reads (Count)
system.cpu.vecRegfileWrites                    617060                       # number of vector regfile writes (Count)
system.cpu.ccRegfileReads                    10565868                       # number of cc regfile reads (Count)
system.cpu.ccRegfileWrites                   10566917                       # number of cc regfile writes (Count)
system.cpu.miscRegfileReads                  74005249                       # number of misc regfile reads (Count)
system.cpu.miscRegfileWrites                   121635                       # number of misc regfile writes (Count)
system.cpu.MemDepUnit__0.insertedLoads        6885723                       # Number of loads inserted to the mem dependence unit. (Count)
system.cpu.MemDepUnit__0.insertedStores       5774457                       # Number of stores inserted to the mem dependence unit. (Count)
system.cpu.MemDepUnit__0.conflictingLoads      1136681                       # Number of conflicting loads. (Count)
system.cpu.MemDepUnit__0.conflictingStores       495396                       # Number of conflicting stores. (Count)
system.cpu.MemDepUnit__1.insertedLoads              0                       # Number of loads inserted to the mem dependence unit. (Count)
system.cpu.MemDepUnit__1.insertedStores             0                       # Number of stores inserted to the mem dependence unit. (Count)
system.cpu.MemDepUnit__1.conflictingLoads            0                       # Number of conflicting loads. (Count)
system.cpu.MemDepUnit__1.conflictingStores            0                       # Number of conflicting stores. (Count)
system.cpu.MemDepUnit__2.insertedLoads              0                       # Number of loads inserted to the mem dependence unit. (Count)
system.cpu.MemDepUnit__2.insertedStores             0                       # Number of stores inserted to the mem dependence unit. (Count)
system.cpu.MemDepUnit__2.conflictingLoads            0                       # Number of conflicting loads. (Count)
system.cpu.MemDepUnit__2.conflictingStores            0                       # Number of conflicting stores. (Count)
system.cpu.MemDepUnit__3.insertedLoads              0                       # Number of loads inserted to the mem dependence unit. (Count)
system.cpu.MemDepUnit__3.insertedStores             0                       # Number of stores inserted to the mem dependence unit. (Count)
system.cpu.MemDepUnit__3.conflictingLoads            0                       # Number of conflicting loads. (Count)
system.cpu.MemDepUnit__3.conflictingStores            0                       # Number of conflicting stores. (Count)
system.cpu.branchPred.lookups                 6613623                       # Number of BP lookups (Count)
system.cpu.branchPred.condPredicted           4655946                       # Number of conditional branches predicted (Count)
system.cpu.branchPred.condIncorrect             98446                       # Number of conditional branches incorrect (Count)
system.cpu.branchPred.BTBLookups              3394713                       # Number of BTB lookups (Count)
system.cpu.branchPred.BTBHits                 3335062                       # Number of BTB hits (Count)
system.cpu.branchPred.BTBHitRatio            0.982428                       # BTB Hit Ratio (Ratio)
system.cpu.branchPred.RASUsed                  609064                       # Number of times the RAS was used to get a target. (Count)
system.cpu.branchPred.RASIncorrect                 29                       # Number of incorrect RAS predictions. (Count)
system.cpu.branchPred.indirectLookups          142803                       # Number of indirect predictor lookups. (Count)
system.cpu.branchPred.indirectHits             126633                       # Number of indirect target hits. (Count)
system.cpu.branchPred.indirectMisses            16170                       # Number of indirect misses. (Count)
system.cpu.branchPred.indirectMispredicted          197                       # Number of mispredicted indirect branches. (Count)
system.cpu.commit.commitSquashedInsts         2250838                       # The number of squashed insts skipped by commit (Count)
system.cpu.commit.commitNonSpecStalls           68990                       # The number of times commit has been forced to stall to communicate backwards (Count)
system.cpu.commit.branchMispredicts             62863                       # The number of times a branch was mispredicted (Count)
system.cpu.commit.numCommittedDist::samples     16266085                       # Number of insts commited each cycle (Count)
system.cpu.commit.numCommittedDist::mean     2.365732                       # Number of insts commited each cycle (Count)
system.cpu.commit.numCommittedDist::stdev     2.968600                       # Number of insts commited each cycle (Count)
system.cpu.commit.numCommittedDist::underflows            0      0.00%      0.00% # Number of insts commited each cycle (Count)
system.cpu.commit.numCommittedDist::0         6645959     40.86%     40.86% # Number of insts commited each cycle (Count)
system.cpu.commit.numCommittedDist::1         2688920     16.53%     57.39% # Number of insts commited each cycle (Count)
system.cpu.commit.numCommittedDist::2         1893311     11.64%     69.03% # Number of insts commited each cycle (Count)
system.cpu.commit.numCommittedDist::3          882218      5.42%     74.45% # Number of insts commited each cycle (Count)
system.cpu.commit.numCommittedDist::4          536862      3.30%     77.75% # Number of insts commited each cycle (Count)
system.cpu.commit.numCommittedDist::5          207511      1.28%     79.03% # Number of insts commited each cycle (Count)
system.cpu.commit.numCommittedDist::6          412906      2.54%     81.57% # Number of insts commited each cycle (Count)
system.cpu.commit.numCommittedDist::7          290624      1.79%     83.35% # Number of insts commited each cycle (Count)
system.cpu.commit.numCommittedDist::8         2707774     16.65%    100.00% # Number of insts commited each cycle (Count)
system.cpu.commit.numCommittedDist::overflows            0      0.00%    100.00% # Number of insts commited each cycle (Count)
system.cpu.commit.numCommittedDist::min_value            0                       # Number of insts commited each cycle (Count)
system.cpu.commit.numCommittedDist::max_value            8                       # Number of insts commited each cycle (Count)
system.cpu.commit.numCommittedDist::total     16266085                       # Number of insts commited each cycle (Count)
system.cpu.commit.instsCommitted             34450241                       # Number of instructions committed (Count)
system.cpu.commit.opsCommitted               38481195                       # Number of ops (including micro ops) committed (Count)
system.cpu.commit.memRefs                    11729707                       # Number of memory references committed (Count)
system.cpu.commit.loads                       6589516                       # Number of loads committed (Count)
system.cpu.commit.amos                          34466                       # Number of atomic instructions committed (Count)
system.cpu.commit.membars                       34476                       # Number of memory barriers committed (Count)
system.cpu.commit.branches                    6176141                       # Number of branches committed (Count)
system.cpu.commit.vectorInstructions           959447                       # Number of committed Vector instructions. (Count)
system.cpu.commit.floating                          0                       # Number of committed floating point instructions. (Count)
system.cpu.commit.integer                    34684864                       # Number of committed integer instructions. (Count)
system.cpu.commit.functionCalls                594128                       # Number of function calls committed. (Count)
system.cpu.commit.committedInstType_0::No_OpClass        67249      0.17%      0.17% # Class of committed instruction (Count)
system.cpu.commit.committedInstType_0::IntAlu     25538348     66.37%     66.54% # Class of committed instruction (Count)
system.cpu.commit.committedInstType_0::IntMult       606046      1.57%     68.12% # Class of committed instruction (Count)
system.cpu.commit.committedInstType_0::IntDiv        25885      0.07%     68.18% # Class of committed instruction (Count)
system.cpu.commit.committedInstType_0::FloatAdd         2165      0.01%     68.19% # Class of committed instruction (Count)
system.cpu.commit.committedInstType_0::FloatCmp        32768      0.09%     68.27% # Class of committed instruction (Count)
system.cpu.commit.committedInstType_0::FloatCvt            0      0.00%     68.27% # Class of committed instruction (Count)
system.cpu.commit.committedInstType_0::FloatMult         1345      0.00%     68.28% # Class of committed instruction (Count)
system.cpu.commit.committedInstType_0::FloatMultAcc            0      0.00%     68.28% # Class of committed instruction (Count)
system.cpu.commit.committedInstType_0::FloatDiv            0      0.00%     68.28% # Class of committed instruction (Count)
system.cpu.commit.committedInstType_0::FloatMisc        51612      0.13%     68.41% # Class of committed instruction (Count)
system.cpu.commit.committedInstType_0::FloatSqrt            0      0.00%     68.41% # Class of committed instruction (Count)
system.cpu.commit.committedInstType_0::SimdAdd        65556      0.17%     68.58% # Class of committed instruction (Count)
system.cpu.commit.committedInstType_0::SimdAddAcc            0      0.00%     68.58% # Class of committed instruction (Count)
system.cpu.commit.committedInstType_0::SimdAlu       131098      0.34%     68.92% # Class of committed instruction (Count)
system.cpu.commit.committedInstType_0::SimdCmp       131092      0.34%     69.26% # Class of committed instruction (Count)
system.cpu.commit.committedInstType_0::SimdCvt            0      0.00%     69.26% # Class of committed instruction (Count)
system.cpu.commit.committedInstType_0::SimdMisc        98324      0.26%     69.52% # Class of committed instruction (Count)
system.cpu.commit.committedInstType_0::SimdMult            0      0.00%     69.52% # Class of committed instruction (Count)
system.cpu.commit.committedInstType_0::SimdMultAcc            0      0.00%     69.52% # Class of committed instruction (Count)
system.cpu.commit.committedInstType_0::SimdShift            0      0.00%     69.52% # Class of committed instruction (Count)
system.cpu.commit.committedInstType_0::SimdShiftAcc            0      0.00%     69.52% # Class of committed instruction (Count)
system.cpu.commit.committedInstType_0::SimdDiv            0      0.00%     69.52% # Class of committed instruction (Count)
system.cpu.commit.committedInstType_0::SimdSqrt            0      0.00%     69.52% # Class of committed instruction (Count)
system.cpu.commit.committedInstType_0::SimdFloatAdd            0      0.00%     69.52% # Class of committed instruction (Count)
system.cpu.commit.committedInstType_0::SimdFloatAlu            0      0.00%     69.52% # Class of committed instruction (Count)
system.cpu.commit.committedInstType_0::SimdFloatCmp            0      0.00%     69.52% # Class of committed instruction (Count)
system.cpu.commit.committedInstType_0::SimdFloatCvt            0      0.00%     69.52% # Class of committed instruction (Count)
system.cpu.commit.committedInstType_0::SimdFloatDiv            0      0.00%     69.52% # Class of committed instruction (Count)
system.cpu.commit.committedInstType_0::SimdFloatMisc            0      0.00%     69.52% # Class of committed instruction (Count)
system.cpu.commit.committedInstType_0::SimdFloatMult            0      0.00%     69.52% # Class of committed instruction (Count)
system.cpu.commit.committedInstType_0::SimdFloatMultAcc            0      0.00%     69.52% # Class of committed instruction (Count)
system.cpu.commit.committedInstType_0::SimdFloatSqrt            0      0.00%     69.52% # Class of committed instruction (Count)
system.cpu.commit.committedInstType_0::SimdReduceAdd            0      0.00%     69.52% # Class of committed instruction (Count)
system.cpu.commit.committedInstType_0::SimdReduceAlu            0      0.00%     69.52% # Class of committed instruction (Count)
system.cpu.commit.committedInstType_0::SimdReduceCmp            0      0.00%     69.52% # Class of committed instruction (Count)
system.cpu.commit.committedInstType_0::SimdFloatReduceAdd            0      0.00%     69.52% # Class of committed instruction (Count)
system.cpu.commit.committedInstType_0::SimdFloatReduceCmp            0      0.00%     69.52% # Class of committed instruction (Count)
system.cpu.commit.committedInstType_0::SimdAes            0      0.00%     69.52% # Class of committed instruction (Count)
system.cpu.commit.committedInstType_0::SimdAesMix            0      0.00%     69.52% # Class of committed instruction (Count)
system.cpu.commit.committedInstType_0::SimdSha1Hash            0      0.00%     69.52% # Class of committed instruction (Count)
system.cpu.commit.committedInstType_0::SimdSha1Hash2            0      0.00%     69.52% # Class of committed instruction (Count)
system.cpu.commit.committedInstType_0::SimdSha256Hash            0      0.00%     69.52% # Class of committed instruction (Count)
system.cpu.commit.committedInstType_0::SimdSha256Hash2            0      0.00%     69.52% # Class of committed instruction (Count)
system.cpu.commit.committedInstType_0::SimdShaSigma2            0      0.00%     69.52% # Class of committed instruction (Count)
system.cpu.commit.committedInstType_0::SimdShaSigma3            0      0.00%     69.52% # Class of committed instruction (Count)
system.cpu.commit.committedInstType_0::SimdPredAlu            0      0.00%     69.52% # Class of committed instruction (Count)
system.cpu.commit.committedInstType_0::MemRead      6589516     17.12%     86.64% # Class of committed instruction (Count)
system.cpu.commit.committedInstType_0::MemWrite      5140191     13.36%    100.00% # Class of committed instruction (Count)
system.cpu.commit.committedInstType_0::FloatMemRead            0      0.00%    100.00% # Class of committed instruction (Count)
system.cpu.commit.committedInstType_0::FloatMemWrite            0      0.00%    100.00% # Class of committed instruction (Count)
system.cpu.commit.committedInstType_0::IprAccess            0      0.00%    100.00% # Class of committed instruction (Count)
system.cpu.commit.committedInstType_0::InstPrefetch            0      0.00%    100.00% # Class of committed instruction (Count)
system.cpu.commit.committedInstType_0::total     38481195                       # Class of committed instruction (Count)
system.cpu.commit.commitEligibleSamples       2707774                       # number cycles where commit BW limit reached (Cycle)
system.cpu.dcache.demandHits::cpu.data       10764370                       # number of demand (read+write) hits (Count)
system.cpu.dcache.demandHits::total          10764370                       # number of demand (read+write) hits (Count)
system.cpu.dcache.overallHits::cpu.data      10803136                       # number of overall hits (Count)
system.cpu.dcache.overallHits::total         10803136                       # number of overall hits (Count)
system.cpu.dcache.demandMisses::cpu.data       106833                       # number of demand (read+write) misses (Count)
system.cpu.dcache.demandMisses::total          106833                       # number of demand (read+write) misses (Count)
system.cpu.dcache.overallMisses::cpu.data       106838                       # number of overall misses (Count)
system.cpu.dcache.overallMisses::total         106838                       # number of overall misses (Count)
system.cpu.dcache.demandMissLatency::cpu.data   7255583605                       # number of demand (read+write) miss ticks (Tick)
system.cpu.dcache.demandMissLatency::total   7255583605                       # number of demand (read+write) miss ticks (Tick)
system.cpu.dcache.overallMissLatency::cpu.data   7255583605                       # number of overall miss ticks (Tick)
system.cpu.dcache.overallMissLatency::total   7255583605                       # number of overall miss ticks (Tick)
system.cpu.dcache.demandAccesses::cpu.data     10871203                       # number of demand (read+write) accesses (Count)
system.cpu.dcache.demandAccesses::total      10871203                       # number of demand (read+write) accesses (Count)
system.cpu.dcache.overallAccesses::cpu.data     10909974                       # number of overall (read+write) accesses (Count)
system.cpu.dcache.overallAccesses::total     10909974                       # number of overall (read+write) accesses (Count)
system.cpu.dcache.demandMissRate::cpu.data     0.009827                       # miss rate for demand accesses (Ratio)
system.cpu.dcache.demandMissRate::total      0.009827                       # miss rate for demand accesses (Ratio)
system.cpu.dcache.overallMissRate::cpu.data     0.009793                       # miss rate for overall accesses (Ratio)
system.cpu.dcache.overallMissRate::total     0.009793                       # miss rate for overall accesses (Ratio)
system.cpu.dcache.demandAvgMissLatency::cpu.data 67915.191046                       # average overall miss latency ((Cycle/Count))
system.cpu.dcache.demandAvgMissLatency::total 67915.191046                       # average overall miss latency ((Cycle/Count))
system.cpu.dcache.overallAvgMissLatency::cpu.data 67912.012627                       # average overall miss latency ((Cycle/Count))
system.cpu.dcache.overallAvgMissLatency::total 67912.012627                       # average overall miss latency ((Cycle/Count))
system.cpu.dcache.blockedCycles::no_mshrs       659190                       # number of cycles access was blocked (Cycle)
system.cpu.dcache.blockedCycles::no_targets            0                       # number of cycles access was blocked (Cycle)
system.cpu.dcache.blockedCauses::no_mshrs        18224                       # number of times access was blocked (Count)
system.cpu.dcache.blockedCauses::no_targets            0                       # number of times access was blocked (Count)
system.cpu.dcache.avgBlocked::no_mshrs      36.171532                       # average number of cycles each access was blocked ((Cycle/Count))
system.cpu.dcache.avgBlocked::no_targets          nan                       # average number of cycles each access was blocked ((Cycle/Count))
system.cpu.dcache.writebacks::writebacks        11144                       # number of writebacks (Count)
system.cpu.dcache.writebacks::total             11144                       # number of writebacks (Count)
system.cpu.dcache.demandMshrHits::cpu.data        84814                       # number of demand (read+write) MSHR hits (Count)
system.cpu.dcache.demandMshrHits::total         84814                       # number of demand (read+write) MSHR hits (Count)
system.cpu.dcache.overallMshrHits::cpu.data        84814                       # number of overall MSHR hits (Count)
system.cpu.dcache.overallMshrHits::total        84814                       # number of overall MSHR hits (Count)
system.cpu.dcache.demandMshrMisses::cpu.data        22019                       # number of demand (read+write) MSHR misses (Count)
system.cpu.dcache.demandMshrMisses::total        22019                       # number of demand (read+write) MSHR misses (Count)
system.cpu.dcache.overallMshrMisses::cpu.data        22024                       # number of overall MSHR misses (Count)
system.cpu.dcache.overallMshrMisses::total        22024                       # number of overall MSHR misses (Count)
system.cpu.dcache.demandMshrMissLatency::cpu.data   1659677353                       # number of demand (read+write) MSHR miss ticks (Tick)
system.cpu.dcache.demandMshrMissLatency::total   1659677353                       # number of demand (read+write) MSHR miss ticks (Tick)
system.cpu.dcache.overallMshrMissLatency::cpu.data   1660148353                       # number of overall MSHR miss ticks (Tick)
system.cpu.dcache.overallMshrMissLatency::total   1660148353                       # number of overall MSHR miss ticks (Tick)
system.cpu.dcache.demandMshrMissRate::cpu.data     0.002025                       # mshr miss ratio for demand accesses (Ratio)
system.cpu.dcache.demandMshrMissRate::total     0.002025                       # mshr miss ratio for demand accesses (Ratio)
system.cpu.dcache.overallMshrMissRate::cpu.data     0.002019                       # mshr miss ratio for overall accesses (Ratio)
system.cpu.dcache.overallMshrMissRate::total     0.002019                       # mshr miss ratio for overall accesses (Ratio)
system.cpu.dcache.demandAvgMshrMissLatency::cpu.data 75374.783278                       # average overall mshr miss latency ((Cycle/Count))
system.cpu.dcache.demandAvgMshrMissLatency::total 75374.783278                       # average overall mshr miss latency ((Cycle/Count))
system.cpu.dcache.overallAvgMshrMissLatency::cpu.data 75379.057074                       # average overall mshr miss latency ((Cycle/Count))
system.cpu.dcache.overallAvgMshrMissLatency::total 75379.057074                       # average overall mshr miss latency ((Cycle/Count))
system.cpu.dcache.replacements                  19979                       # number of replacements (Count)
system.cpu.dcache.LoadLockedReq.hits::cpu.data           39                       # number of LoadLockedReq hits (Count)
system.cpu.dcache.LoadLockedReq.hits::total           39                       # number of LoadLockedReq hits (Count)
system.cpu.dcache.LoadLockedReq.misses::cpu.data            5                       # number of LoadLockedReq misses (Count)
system.cpu.dcache.LoadLockedReq.misses::total            5                       # number of LoadLockedReq misses (Count)
system.cpu.dcache.LoadLockedReq.missLatency::cpu.data       340000                       # number of LoadLockedReq miss ticks (Tick)
system.cpu.dcache.LoadLockedReq.missLatency::total       340000                       # number of LoadLockedReq miss ticks (Tick)
system.cpu.dcache.LoadLockedReq.accesses::cpu.data           44                       # number of LoadLockedReq accesses(hits+misses) (Count)
system.cpu.dcache.LoadLockedReq.accesses::total           44                       # number of LoadLockedReq accesses(hits+misses) (Count)
system.cpu.dcache.LoadLockedReq.missRate::cpu.data     0.113636                       # miss rate for LoadLockedReq accesses (Ratio)
system.cpu.dcache.LoadLockedReq.missRate::total     0.113636                       # miss rate for LoadLockedReq accesses (Ratio)
system.cpu.dcache.LoadLockedReq.avgMissLatency::cpu.data        68000                       # average LoadLockedReq miss latency ((Tick/Count))
system.cpu.dcache.LoadLockedReq.avgMissLatency::total        68000                       # average LoadLockedReq miss latency ((Tick/Count))
system.cpu.dcache.LoadLockedReq.mshrHits::cpu.data            2                       # number of LoadLockedReq MSHR hits (Count)
system.cpu.dcache.LoadLockedReq.mshrHits::total            2                       # number of LoadLockedReq MSHR hits (Count)
system.cpu.dcache.LoadLockedReq.mshrMisses::cpu.data            3                       # number of LoadLockedReq MSHR misses (Count)
system.cpu.dcache.LoadLockedReq.mshrMisses::total            3                       # number of LoadLockedReq MSHR misses (Count)
system.cpu.dcache.LoadLockedReq.mshrMissLatency::cpu.data       269500                       # number of LoadLockedReq MSHR miss ticks (Tick)
system.cpu.dcache.LoadLockedReq.mshrMissLatency::total       269500                       # number of LoadLockedReq MSHR miss ticks (Tick)
system.cpu.dcache.LoadLockedReq.mshrMissRate::cpu.data     0.068182                       # mshr miss rate for LoadLockedReq accesses (Ratio)
system.cpu.dcache.LoadLockedReq.mshrMissRate::total     0.068182                       # mshr miss rate for LoadLockedReq accesses (Ratio)
system.cpu.dcache.LoadLockedReq.avgMshrMissLatency::cpu.data 89833.333333                       # average LoadLockedReq mshr miss latency ((Tick/Count))
system.cpu.dcache.LoadLockedReq.avgMshrMissLatency::total 89833.333333                       # average LoadLockedReq mshr miss latency ((Tick/Count))
system.cpu.dcache.ReadReq.hits::cpu.data      5725801                       # number of ReadReq hits (Count)
system.cpu.dcache.ReadReq.hits::total         5725801                       # number of ReadReq hits (Count)
system.cpu.dcache.ReadReq.misses::cpu.data        39681                       # number of ReadReq misses (Count)
system.cpu.dcache.ReadReq.misses::total         39681                       # number of ReadReq misses (Count)
system.cpu.dcache.ReadReq.missLatency::cpu.data   3110621500                       # number of ReadReq miss ticks (Tick)
system.cpu.dcache.ReadReq.missLatency::total   3110621500                       # number of ReadReq miss ticks (Tick)
system.cpu.dcache.ReadReq.accesses::cpu.data      5765482                       # number of ReadReq accesses(hits+misses) (Count)
system.cpu.dcache.ReadReq.accesses::total      5765482                       # number of ReadReq accesses(hits+misses) (Count)
system.cpu.dcache.ReadReq.missRate::cpu.data     0.006883                       # miss rate for ReadReq accesses (Ratio)
system.cpu.dcache.ReadReq.missRate::total     0.006883                       # miss rate for ReadReq accesses (Ratio)
system.cpu.dcache.ReadReq.avgMissLatency::cpu.data 78390.703359                       # average ReadReq miss latency ((Tick/Count))
system.cpu.dcache.ReadReq.avgMissLatency::total 78390.703359                       # average ReadReq miss latency ((Tick/Count))
system.cpu.dcache.ReadReq.mshrHits::cpu.data        28607                       # number of ReadReq MSHR hits (Count)
system.cpu.dcache.ReadReq.mshrHits::total        28607                       # number of ReadReq MSHR hits (Count)
system.cpu.dcache.ReadReq.mshrMisses::cpu.data        11074                       # number of ReadReq MSHR misses (Count)
system.cpu.dcache.ReadReq.mshrMisses::total        11074                       # number of ReadReq MSHR misses (Count)
system.cpu.dcache.ReadReq.mshrMissLatency::cpu.data    945511504                       # number of ReadReq MSHR miss ticks (Tick)
system.cpu.dcache.ReadReq.mshrMissLatency::total    945511504                       # number of ReadReq MSHR miss ticks (Tick)
system.cpu.dcache.ReadReq.mshrMissRate::cpu.data     0.001921                       # mshr miss rate for ReadReq accesses (Ratio)
system.cpu.dcache.ReadReq.mshrMissRate::total     0.001921                       # mshr miss rate for ReadReq accesses (Ratio)
system.cpu.dcache.ReadReq.avgMshrMissLatency::cpu.data 85381.208597                       # average ReadReq mshr miss latency ((Tick/Count))
system.cpu.dcache.ReadReq.avgMshrMissLatency::total 85381.208597                       # average ReadReq mshr miss latency ((Tick/Count))
system.cpu.dcache.SoftPFReq.hits::cpu.data        38766                       # number of SoftPFReq hits (Count)
system.cpu.dcache.SoftPFReq.hits::total         38766                       # number of SoftPFReq hits (Count)
system.cpu.dcache.SoftPFReq.misses::cpu.data            5                       # number of SoftPFReq misses (Count)
system.cpu.dcache.SoftPFReq.misses::total            5                       # number of SoftPFReq misses (Count)
system.cpu.dcache.SoftPFReq.accesses::cpu.data        38771                       # number of SoftPFReq accesses(hits+misses) (Count)
system.cpu.dcache.SoftPFReq.accesses::total        38771                       # number of SoftPFReq accesses(hits+misses) (Count)
system.cpu.dcache.SoftPFReq.missRate::cpu.data     0.000129                       # miss rate for SoftPFReq accesses (Ratio)
system.cpu.dcache.SoftPFReq.missRate::total     0.000129                       # miss rate for SoftPFReq accesses (Ratio)
system.cpu.dcache.SoftPFReq.mshrMisses::cpu.data            5                       # number of SoftPFReq MSHR misses (Count)
system.cpu.dcache.SoftPFReq.mshrMisses::total            5                       # number of SoftPFReq MSHR misses (Count)
system.cpu.dcache.SoftPFReq.mshrMissLatency::cpu.data       471000                       # number of SoftPFReq MSHR miss ticks (Tick)
system.cpu.dcache.SoftPFReq.mshrMissLatency::total       471000                       # number of SoftPFReq MSHR miss ticks (Tick)
system.cpu.dcache.SoftPFReq.mshrMissRate::cpu.data     0.000129                       # mshr miss rate for SoftPFReq accesses (Ratio)
system.cpu.dcache.SoftPFReq.mshrMissRate::total     0.000129                       # mshr miss rate for SoftPFReq accesses (Ratio)
system.cpu.dcache.SoftPFReq.avgMshrMissLatency::cpu.data        94200                       # average SoftPFReq mshr miss latency ((Tick/Count))
system.cpu.dcache.SoftPFReq.avgMshrMissLatency::total        94200                       # average SoftPFReq mshr miss latency ((Tick/Count))
system.cpu.dcache.StoreCondReq.hits::cpu.data           10                       # number of StoreCondReq hits (Count)
system.cpu.dcache.StoreCondReq.hits::total           10                       # number of StoreCondReq hits (Count)
system.cpu.dcache.StoreCondReq.accesses::cpu.data           10                       # number of StoreCondReq accesses(hits+misses) (Count)
system.cpu.dcache.StoreCondReq.accesses::total           10                       # number of StoreCondReq accesses(hits+misses) (Count)
system.cpu.dcache.SwapReq.hits::cpu.data        34465                       # number of SwapReq hits (Count)
system.cpu.dcache.SwapReq.hits::total           34465                       # number of SwapReq hits (Count)
system.cpu.dcache.SwapReq.misses::cpu.data            1                       # number of SwapReq misses (Count)
system.cpu.dcache.SwapReq.misses::total             1                       # number of SwapReq misses (Count)
system.cpu.dcache.SwapReq.missLatency::cpu.data        95000                       # number of SwapReq miss ticks (Tick)
system.cpu.dcache.SwapReq.missLatency::total        95000                       # number of SwapReq miss ticks (Tick)
system.cpu.dcache.SwapReq.accesses::cpu.data        34466                       # number of SwapReq accesses(hits+misses) (Count)
system.cpu.dcache.SwapReq.accesses::total        34466                       # number of SwapReq accesses(hits+misses) (Count)
system.cpu.dcache.SwapReq.missRate::cpu.data     0.000029                       # miss rate for SwapReq accesses (Ratio)
system.cpu.dcache.SwapReq.missRate::total     0.000029                       # miss rate for SwapReq accesses (Ratio)
system.cpu.dcache.SwapReq.avgMissLatency::cpu.data        95000                       # average SwapReq miss latency ((Tick/Count))
system.cpu.dcache.SwapReq.avgMissLatency::total        95000                       # average SwapReq miss latency ((Tick/Count))
system.cpu.dcache.SwapReq.mshrHits::cpu.data            1                       # number of SwapReq MSHR hits (Count)
system.cpu.dcache.SwapReq.mshrHits::total            1                       # number of SwapReq MSHR hits (Count)
system.cpu.dcache.WriteLineReq.misses::cpu.data         2054                       # number of WriteLineReq misses (Count)
system.cpu.dcache.WriteLineReq.misses::total         2054                       # number of WriteLineReq misses (Count)
system.cpu.dcache.WriteLineReq.missLatency::cpu.data     25154194                       # number of WriteLineReq miss ticks (Tick)
system.cpu.dcache.WriteLineReq.missLatency::total     25154194                       # number of WriteLineReq miss ticks (Tick)
system.cpu.dcache.WriteLineReq.accesses::cpu.data         2054                       # number of WriteLineReq accesses(hits+misses) (Count)
system.cpu.dcache.WriteLineReq.accesses::total         2054                       # number of WriteLineReq accesses(hits+misses) (Count)
system.cpu.dcache.WriteLineReq.missRate::cpu.data            1                       # miss rate for WriteLineReq accesses (Ratio)
system.cpu.dcache.WriteLineReq.missRate::total            1                       # miss rate for WriteLineReq accesses (Ratio)
system.cpu.dcache.WriteLineReq.avgMissLatency::cpu.data 12246.443038                       # average WriteLineReq miss latency ((Tick/Count))
system.cpu.dcache.WriteLineReq.avgMissLatency::total 12246.443038                       # average WriteLineReq miss latency ((Tick/Count))
system.cpu.dcache.WriteLineReq.mshrMisses::cpu.data         2054                       # number of WriteLineReq MSHR misses (Count)
system.cpu.dcache.WriteLineReq.mshrMisses::total         2054                       # number of WriteLineReq MSHR misses (Count)
system.cpu.dcache.WriteLineReq.mshrMissLatency::cpu.data     23100194                       # number of WriteLineReq MSHR miss ticks (Tick)
system.cpu.dcache.WriteLineReq.mshrMissLatency::total     23100194                       # number of WriteLineReq MSHR miss ticks (Tick)
system.cpu.dcache.WriteLineReq.mshrMissRate::cpu.data            1                       # mshr miss rate for WriteLineReq accesses (Ratio)
system.cpu.dcache.WriteLineReq.mshrMissRate::total            1                       # mshr miss rate for WriteLineReq accesses (Ratio)
system.cpu.dcache.WriteLineReq.avgMshrMissLatency::cpu.data 11246.443038                       # average WriteLineReq mshr miss latency ((Tick/Count))
system.cpu.dcache.WriteLineReq.avgMshrMissLatency::total 11246.443038                       # average WriteLineReq mshr miss latency ((Tick/Count))
system.cpu.dcache.WriteReq.hits::cpu.data      5038569                       # number of WriteReq hits (Count)
system.cpu.dcache.WriteReq.hits::total        5038569                       # number of WriteReq hits (Count)
system.cpu.dcache.WriteReq.misses::cpu.data        65098                       # number of WriteReq misses (Count)
system.cpu.dcache.WriteReq.misses::total        65098                       # number of WriteReq misses (Count)
system.cpu.dcache.WriteReq.missLatency::cpu.data   4119807911                       # number of WriteReq miss ticks (Tick)
system.cpu.dcache.WriteReq.missLatency::total   4119807911                       # number of WriteReq miss ticks (Tick)
system.cpu.dcache.WriteReq.accesses::cpu.data      5103667                       # number of WriteReq accesses(hits+misses) (Count)
system.cpu.dcache.WriteReq.accesses::total      5103667                       # number of WriteReq accesses(hits+misses) (Count)
system.cpu.dcache.WriteReq.missRate::cpu.data     0.012755                       # miss rate for WriteReq accesses (Ratio)
system.cpu.dcache.WriteReq.missRate::total     0.012755                       # miss rate for WriteReq accesses (Ratio)
system.cpu.dcache.WriteReq.avgMissLatency::cpu.data 63286.243986                       # average WriteReq miss latency ((Tick/Count))
system.cpu.dcache.WriteReq.avgMissLatency::total 63286.243986                       # average WriteReq miss latency ((Tick/Count))
system.cpu.dcache.WriteReq.mshrHits::cpu.data        56207                       # number of WriteReq MSHR hits (Count)
system.cpu.dcache.WriteReq.mshrHits::total        56207                       # number of WriteReq MSHR hits (Count)
system.cpu.dcache.WriteReq.mshrMisses::cpu.data         8891                       # number of WriteReq MSHR misses (Count)
system.cpu.dcache.WriteReq.mshrMisses::total         8891                       # number of WriteReq MSHR misses (Count)
system.cpu.dcache.WriteReq.mshrMissLatency::cpu.data    691065655                       # number of WriteReq MSHR miss ticks (Tick)
system.cpu.dcache.WriteReq.mshrMissLatency::total    691065655                       # number of WriteReq MSHR miss ticks (Tick)
system.cpu.dcache.WriteReq.mshrMissRate::cpu.data     0.001742                       # mshr miss rate for WriteReq accesses (Ratio)
system.cpu.dcache.WriteReq.mshrMissRate::total     0.001742                       # mshr miss rate for WriteReq accesses (Ratio)
system.cpu.dcache.WriteReq.avgMshrMissLatency::cpu.data 77726.426161                       # average WriteReq mshr miss latency ((Tick/Count))
system.cpu.dcache.WriteReq.avgMshrMissLatency::total 77726.426161                       # average WriteReq mshr miss latency ((Tick/Count))
system.cpu.dcache.power_state.pwrStateResidencyTicks::UNDEFINED   8574259500                       # Cumulative time (in ticks) in various power states (Tick)
system.cpu.dcache.tags.tagsInUse          2036.072664                       # Average ticks per tags in use ((Tick/Count))
system.cpu.dcache.tags.totalRefs             10859677                       # Total number of references to valid blocks. (Count)
system.cpu.dcache.tags.sampledRefs              22027                       # Sample count of references to valid blocks. (Count)
system.cpu.dcache.tags.avgRefs             493.016616                       # Average number of references to valid blocks. ((Count/Count))
system.cpu.dcache.tags.warmupTick              145000                       # The tick when the warmup percentage was hit. (Tick)
system.cpu.dcache.tags.occupancies::cpu.data  2036.072664                       # Average occupied blocks per tick, per requestor ((Count/Tick))
system.cpu.dcache.tags.avgOccs::cpu.data     0.994176                       # Average percentage of cache occupancy ((Ratio/Tick))
system.cpu.dcache.tags.avgOccs::total        0.994176                       # Average percentage of cache occupancy ((Ratio/Tick))
system.cpu.dcache.tags.occupanciesTaskId::1024         2048                       # Occupied blocks per task id (Count)
system.cpu.dcache.tags.ageTaskId_1024::0           74                       # Occupied blocks per task id, per block age (Count)
system.cpu.dcache.tags.ageTaskId_1024::1           20                       # Occupied blocks per task id, per block age (Count)
system.cpu.dcache.tags.ageTaskId_1024::2          230                       # Occupied blocks per task id, per block age (Count)
system.cpu.dcache.tags.ageTaskId_1024::3         1724                       # Occupied blocks per task id, per block age (Count)
system.cpu.dcache.tags.ratioOccsTaskId::1024            1                       # Ratio of occupied blocks and all blocks, per task id (Ratio)
system.cpu.dcache.tags.tagAccesses           21911015                       # Number of tag accesses (Count)
system.cpu.dcache.tags.dataAccesses          21911015                       # Number of data accesses (Count)
system.cpu.dcache.tags.power_state.pwrStateResidencyTicks::UNDEFINED   8574259500                       # Cumulative time (in ticks) in various power states (Tick)
system.cpu.decode.idleCycles                  5422200                       # Number of cycles decode is idle (Cycle)
system.cpu.decode.blockedCycles               3431299                       # Number of cycles decode is blocked (Cycle)
system.cpu.decode.runCycles                   7228424                       # Number of cycles decode is running (Cycle)
system.cpu.decode.unblockCycles                426801                       # Number of cycles decode is unblocking (Cycle)
system.cpu.decode.squashCycles                  81552                       # Number of cycles decode is squashing (Cycle)
system.cpu.decode.branchResolved              3338610                       # Number of times decode resolved a branch (Count)
system.cpu.decode.branchMispred                 35594                       # Number of times decode detected a branch misprediction (Count)
system.cpu.decode.decodedInsts               41481408                       # Number of instructions handled by decode (Count)
system.cpu.decode.squashedInsts                 13277                       # Number of squashed instructions handled by decode (Count)
system.cpu.fetch.icacheStallCycles            6151525                       # Number of cycles fetch is stalled on an Icache miss (Cycle)
system.cpu.fetch.insts                       37311743                       # Number of instructions fetch has processed (Count)
system.cpu.fetch.branches                     6613623                       # Number of branches that fetch encountered (Count)
system.cpu.fetch.predictedBranches            4070759                       # Number of branches that fetch has predicted taken (Count)
system.cpu.fetch.cycles                      10321538                       # Number of cycles fetch has run and was not squashing or blocked (Cycle)
system.cpu.fetch.squashCycles                  234272                       # Number of cycles fetch has spent squashing (Cycle)
system.cpu.fetch.miscStallCycles                    6                       # Number of cycles fetch has spent waiting on interrupts, or bad addresses, or out of MSHRs (Cycle)
system.cpu.fetch.pendingTrapStallCycles             9                       # Number of stall cycles due to pending traps (Cycle)
system.cpu.fetch.icacheWaitRetryStallCycles           62                       # Number of stall cycles due to full MSHR (Cycle)
system.cpu.fetch.cacheLines                   5487641                       # Number of cache lines fetched (Count)
system.cpu.fetch.icacheSquashes                 50457                       # Number of outstanding Icache misses that were squashed (Count)
system.cpu.fetch.nisnDist::samples           16590276                       # Number of instructions fetched each cycle (Total) (Count)
system.cpu.fetch.nisnDist::mean              2.543928                       # Number of instructions fetched each cycle (Total) (Count)
system.cpu.fetch.nisnDist::stdev             3.136689                       # Number of instructions fetched each cycle (Total) (Count)
system.cpu.fetch.nisnDist::underflows               0      0.00%      0.00% # Number of instructions fetched each cycle (Total) (Count)
system.cpu.fetch.nisnDist::0                  8343705     50.29%     50.29% # Number of instructions fetched each cycle (Total) (Count)
system.cpu.fetch.nisnDist::1                   763124      4.60%     54.89% # Number of instructions fetched each cycle (Total) (Count)
system.cpu.fetch.nisnDist::2                  1126078      6.79%     61.68% # Number of instructions fetched each cycle (Total) (Count)
system.cpu.fetch.nisnDist::3                   864732      5.21%     66.89% # Number of instructions fetched each cycle (Total) (Count)
system.cpu.fetch.nisnDist::4                   890539      5.37%     72.26% # Number of instructions fetched each cycle (Total) (Count)
system.cpu.fetch.nisnDist::5                   706000      4.26%     76.52% # Number of instructions fetched each cycle (Total) (Count)
system.cpu.fetch.nisnDist::6                   642062      3.87%     80.39% # Number of instructions fetched each cycle (Total) (Count)
system.cpu.fetch.nisnDist::7                   381826      2.30%     82.69% # Number of instructions fetched each cycle (Total) (Count)
system.cpu.fetch.nisnDist::8                  2872210     17.31%    100.00% # Number of instructions fetched each cycle (Total) (Count)
system.cpu.fetch.nisnDist::overflows                0      0.00%    100.00% # Number of instructions fetched each cycle (Total) (Count)
system.cpu.fetch.nisnDist::min_value                0                       # Number of instructions fetched each cycle (Total) (Count)
system.cpu.fetch.nisnDist::max_value                8                       # Number of instructions fetched each cycle (Total) (Count)
system.cpu.fetch.nisnDist::total             16590276                       # Number of instructions fetched each cycle (Total) (Count)
system.cpu.fetch.branchRate                  0.385667                       # Number of branch fetches per cycle (Ratio)
system.cpu.fetch.rate                        2.175800                       # Number of inst fetches per cycle ((Count/Cycle))
system.cpu.icache.demandHits::cpu.inst        5459791                       # number of demand (read+write) hits (Count)
system.cpu.icache.demandHits::total           5459791                       # number of demand (read+write) hits (Count)
system.cpu.icache.overallHits::cpu.inst       5459791                       # number of overall hits (Count)
system.cpu.icache.overallHits::total          5459791                       # number of overall hits (Count)
system.cpu.icache.demandMisses::cpu.inst        27850                       # number of demand (read+write) misses (Count)
system.cpu.icache.demandMisses::total           27850                       # number of demand (read+write) misses (Count)
system.cpu.icache.overallMisses::cpu.inst        27850                       # number of overall misses (Count)
system.cpu.icache.overallMisses::total          27850                       # number of overall misses (Count)
system.cpu.icache.demandMissLatency::cpu.inst    727102998                       # number of demand (read+write) miss ticks (Tick)
system.cpu.icache.demandMissLatency::total    727102998                       # number of demand (read+write) miss ticks (Tick)
system.cpu.icache.overallMissLatency::cpu.inst    727102998                       # number of overall miss ticks (Tick)
system.cpu.icache.overallMissLatency::total    727102998                       # number of overall miss ticks (Tick)
system.cpu.icache.demandAccesses::cpu.inst      5487641                       # number of demand (read+write) accesses (Count)
system.cpu.icache.demandAccesses::total       5487641                       # number of demand (read+write) accesses (Count)
system.cpu.icache.overallAccesses::cpu.inst      5487641                       # number of overall (read+write) accesses (Count)
system.cpu.icache.overallAccesses::total      5487641                       # number of overall (read+write) accesses (Count)
system.cpu.icache.demandMissRate::cpu.inst     0.005075                       # miss rate for demand accesses (Ratio)
system.cpu.icache.demandMissRate::total      0.005075                       # miss rate for demand accesses (Ratio)
system.cpu.icache.overallMissRate::cpu.inst     0.005075                       # miss rate for overall accesses (Ratio)
system.cpu.icache.overallMissRate::total     0.005075                       # miss rate for overall accesses (Ratio)
system.cpu.icache.demandAvgMissLatency::cpu.inst 26107.827576                       # average overall miss latency ((Cycle/Count))
system.cpu.icache.demandAvgMissLatency::total 26107.827576                       # average overall miss latency ((Cycle/Count))
system.cpu.icache.overallAvgMissLatency::cpu.inst 26107.827576                       # average overall miss latency ((Cycle/Count))
system.cpu.icache.overallAvgMissLatency::total 26107.827576                       # average overall miss latency ((Cycle/Count))
system.cpu.icache.blockedCycles::no_mshrs          990                       # number of cycles access was blocked (Cycle)
system.cpu.icache.blockedCycles::no_targets            0                       # number of cycles access was blocked (Cycle)
system.cpu.icache.blockedCauses::no_mshrs           17                       # number of times access was blocked (Count)
system.cpu.icache.blockedCauses::no_targets            0                       # number of times access was blocked (Count)
system.cpu.icache.avgBlocked::no_mshrs      58.235294                       # average number of cycles each access was blocked ((Cycle/Count))
system.cpu.icache.avgBlocked::no_targets          nan                       # average number of cycles each access was blocked ((Cycle/Count))
system.cpu.icache.writebacks::writebacks        25370                       # number of writebacks (Count)
system.cpu.icache.writebacks::total             25370                       # number of writebacks (Count)
system.cpu.icache.demandMshrHits::cpu.inst         1979                       # number of demand (read+write) MSHR hits (Count)
system.cpu.icache.demandMshrHits::total          1979                       # number of demand (read+write) MSHR hits (Count)
system.cpu.icache.overallMshrHits::cpu.inst         1979                       # number of overall MSHR hits (Count)
system.cpu.icache.overallMshrHits::total         1979                       # number of overall MSHR hits (Count)
system.cpu.icache.demandMshrMisses::cpu.inst        25871                       # number of demand (read+write) MSHR misses (Count)
system.cpu.icache.demandMshrMisses::total        25871                       # number of demand (read+write) MSHR misses (Count)
system.cpu.icache.overallMshrMisses::cpu.inst        25871                       # number of overall MSHR misses (Count)
system.cpu.icache.overallMshrMisses::total        25871                       # number of overall MSHR misses (Count)
system.cpu.icache.demandMshrMissLatency::cpu.inst    656990499                       # number of demand (read+write) MSHR miss ticks (Tick)
system.cpu.icache.demandMshrMissLatency::total    656990499                       # number of demand (read+write) MSHR miss ticks (Tick)
system.cpu.icache.overallMshrMissLatency::cpu.inst    656990499                       # number of overall MSHR miss ticks (Tick)
system.cpu.icache.overallMshrMissLatency::total    656990499                       # number of overall MSHR miss ticks (Tick)
system.cpu.icache.demandMshrMissRate::cpu.inst     0.004714                       # mshr miss ratio for demand accesses (Ratio)
system.cpu.icache.demandMshrMissRate::total     0.004714                       # mshr miss ratio for demand accesses (Ratio)
system.cpu.icache.overallMshrMissRate::cpu.inst     0.004714                       # mshr miss ratio for overall accesses (Ratio)
system.cpu.icache.overallMshrMissRate::total     0.004714                       # mshr miss ratio for overall accesses (Ratio)
system.cpu.icache.demandAvgMshrMissLatency::cpu.inst 25394.862935                       # average overall mshr miss latency ((Cycle/Count))
system.cpu.icache.demandAvgMshrMissLatency::total 25394.862935                       # average overall mshr miss latency ((Cycle/Count))
system.cpu.icache.overallAvgMshrMissLatency::cpu.inst 25394.862935                       # average overall mshr miss latency ((Cycle/Count))
system.cpu.icache.overallAvgMshrMissLatency::total 25394.862935                       # average overall mshr miss latency ((Cycle/Count))
system.cpu.icache.replacements                  25370                       # number of replacements (Count)
system.cpu.icache.ReadReq.hits::cpu.inst      5459791                       # number of ReadReq hits (Count)
system.cpu.icache.ReadReq.hits::total         5459791                       # number of ReadReq hits (Count)
system.cpu.icache.ReadReq.misses::cpu.inst        27850                       # number of ReadReq misses (Count)
system.cpu.icache.ReadReq.misses::total         27850                       # number of ReadReq misses (Count)
system.cpu.icache.ReadReq.missLatency::cpu.inst    727102998                       # number of ReadReq miss ticks (Tick)
system.cpu.icache.ReadReq.missLatency::total    727102998                       # number of ReadReq miss ticks (Tick)
system.cpu.icache.ReadReq.accesses::cpu.inst      5487641                       # number of ReadReq accesses(hits+misses) (Count)
system.cpu.icache.ReadReq.accesses::total      5487641                       # number of ReadReq accesses(hits+misses) (Count)
system.cpu.icache.ReadReq.missRate::cpu.inst     0.005075                       # miss rate for ReadReq accesses (Ratio)
system.cpu.icache.ReadReq.missRate::total     0.005075                       # miss rate for ReadReq accesses (Ratio)
system.cpu.icache.ReadReq.avgMissLatency::cpu.inst 26107.827576                       # average ReadReq miss latency ((Tick/Count))
system.cpu.icache.ReadReq.avgMissLatency::total 26107.827576                       # average ReadReq miss latency ((Tick/Count))
system.cpu.icache.ReadReq.mshrHits::cpu.inst         1979                       # number of ReadReq MSHR hits (Count)
system.cpu.icache.ReadReq.mshrHits::total         1979                       # number of ReadReq MSHR hits (Count)
system.cpu.icache.ReadReq.mshrMisses::cpu.inst        25871                       # number of ReadReq MSHR misses (Count)
system.cpu.icache.ReadReq.mshrMisses::total        25871                       # number of ReadReq MSHR misses (Count)
system.cpu.icache.ReadReq.mshrMissLatency::cpu.inst    656990499                       # number of ReadReq MSHR miss ticks (Tick)
system.cpu.icache.ReadReq.mshrMissLatency::total    656990499                       # number of ReadReq MSHR miss ticks (Tick)
system.cpu.icache.ReadReq.mshrMissRate::cpu.inst     0.004714                       # mshr miss rate for ReadReq accesses (Ratio)
system.cpu.icache.ReadReq.mshrMissRate::total     0.004714                       # mshr miss rate for ReadReq accesses (Ratio)
system.cpu.icache.ReadReq.avgMshrMissLatency::cpu.inst 25394.862935                       # average ReadReq mshr miss latency ((Tick/Count))
system.cpu.icache.ReadReq.avgMshrMissLatency::total 25394.862935                       # average ReadReq mshr miss latency ((Tick/Count))
system.cpu.icache.power_state.pwrStateResidencyTicks::UNDEFINED   8574259500                       # Cumulative time (in ticks) in various power states (Tick)
system.cpu.icache.tags.tagsInUse           496.463175                       # Average ticks per tags in use ((Tick/Count))
system.cpu.icache.tags.totalRefs              5485661                       # Total number of references to valid blocks. (Count)
system.cpu.icache.tags.sampledRefs              25870                       # Sample count of references to valid blocks. (Count)
system.cpu.icache.tags.avgRefs             212.047198                       # Average number of references to valid blocks. ((Count/Count))
system.cpu.icache.tags.warmupTick               77000                       # The tick when the warmup percentage was hit. (Tick)
system.cpu.icache.tags.occupancies::cpu.inst   496.463175                       # Average occupied blocks per tick, per requestor ((Count/Tick))
system.cpu.icache.tags.avgOccs::cpu.inst     0.969655                       # Average percentage of cache occupancy ((Ratio/Tick))
system.cpu.icache.tags.avgOccs::total        0.969655                       # Average percentage of cache occupancy ((Ratio/Tick))
system.cpu.icache.tags.occupanciesTaskId::1024          500                       # Occupied blocks per task id (Count)
system.cpu.icache.tags.ageTaskId_1024::0           95                       # Occupied blocks per task id, per block age (Count)
system.cpu.icache.tags.ageTaskId_1024::1            3                       # Occupied blocks per task id, per block age (Count)
system.cpu.icache.tags.ageTaskId_1024::3          402                       # Occupied blocks per task id, per block age (Count)
system.cpu.icache.tags.ratioOccsTaskId::1024     0.976562                       # Ratio of occupied blocks and all blocks, per task id (Ratio)
system.cpu.icache.tags.tagAccesses           11001152                       # Number of tag accesses (Count)
system.cpu.icache.tags.dataAccesses          11001152                       # Number of data accesses (Count)
system.cpu.icache.tags.power_state.pwrStateResidencyTicks::UNDEFINED   8574259500                       # Cumulative time (in ticks) in various power states (Tick)
system.cpu.iew.idleCycles                           0                       # Number of cycles IEW is idle (Cycle)
system.cpu.iew.squashCycles                     81552                       # Number of cycles IEW is squashing (Cycle)
system.cpu.iew.blockCycles                     330475                       # Number of cycles IEW is blocking (Cycle)
system.cpu.iew.unblockCycles                   536527                       # Number of cycles IEW is unblocking (Cycle)
[...]
system.mem_ctrls.dram.bwRead::cpu.inst      193098891                       # Total read bandwidth from this memory ((Byte/Second))
system.mem_ctrls.dram.bwRead::cpu.data      148321147                       # Total read bandwidth from this memory ((Byte/Second))
system.mem_ctrls.dram.bwRead::total         341420037                       # Total read bandwidth from this memory ((Byte/Second))
system.mem_ctrls.dram.bwInstRead::cpu.inst    193098891                       # Instruction read bandwidth from this memory ((Byte/Second))
system.mem_ctrls.dram.bwInstRead::total     193098891                       # Instruction read bandwidth from this memory ((Byte/Second))
system.mem_ctrls.dram.bwWrite::writebacks     83181061                       # Write bandwidth from this memory ((Byte/Second))
system.mem_ctrls.dram.bwWrite::total         83181061                       # Write bandwidth from this memory ((Byte/Second))
system.mem_ctrls.dram.bwTotal::writebacks     83181061                       # Total bandwidth to/from this memory ((Byte/Second))
system.mem_ctrls.dram.bwTotal::cpu.inst     193098891                       # Total bandwidth to/from this memory ((Byte/Second))
system.mem_ctrls.dram.bwTotal::cpu.data     148321147                       # Total bandwidth to/from this memory ((Byte/Second))
system.mem_ctrls.dram.bwTotal::total        424601098                       # Total bandwidth to/from this memory ((Byte/Second))
system.mem_ctrls.dram.readBursts                21649                       # Number of DRAM read bursts (Count)
system.mem_ctrls.dram.writeBursts               12977                       # Number of DRAM write bursts (Count)
system.mem_ctrls.dram.perBankRdBursts::0         1285                       # Per bank write bursts (Count)
system.mem_ctrls.dram.perBankRdBursts::1         1341                       # Per bank write bursts (Count)
system.mem_ctrls.dram.perBankRdBursts::2         1378                       # Per bank write bursts (Count)
system.mem_ctrls.dram.perBankRdBursts::3         1342                       # Per bank write bursts (Count)
system.mem_ctrls.dram.perBankRdBursts::4         1318                       # Per bank write bursts (Count)
system.mem_ctrls.dram.perBankRdBursts::5         1552                       # Per bank write bursts (Count)
system.mem_ctrls.dram.perBankRdBursts::6         1700                       # Per bank write bursts (Count)
system.mem_ctrls.dram.perBankRdBursts::7         1601                       # Per bank write bursts (Count)
system.mem_ctrls.dram.perBankRdBursts::8         1276                       # Per bank write bursts (Count)
system.mem_ctrls.dram.perBankRdBursts::9         1289                       # Per bank write bursts (Count)
system.mem_ctrls.dram.perBankRdBursts::10         1228                       # Per bank write bursts (Count)
system.mem_ctrls.dram.perBankRdBursts::11         1309                       # Per bank write bursts (Count)
system.mem_ctrls.dram.perBankRdBursts::12         1270                       # Per bank write bursts (Count)
system.mem_ctrls.dram.perBankRdBursts::13         1298                       # Per bank write bursts (Count)
system.mem_ctrls.dram.perBankRdBursts::14         1256                       # Per bank write bursts (Count)
system.mem_ctrls.dram.perBankRdBursts::15         1206                       # Per bank write bursts (Count)
system.mem_ctrls.dram.perBankWrBursts::0          718                       # Per bank write bursts (Count)
system.mem_ctrls.dram.perBankWrBursts::1          748                       # Per bank write bursts (Count)
system.mem_ctrls.dram.perBankWrBursts::2          815                       # Per bank write bursts (Count)
system.mem_ctrls.dram.perBankWrBursts::3          825                       # Per bank write bursts (Count)
system.mem_ctrls.dram.perBankWrBursts::4          776                       # Per bank write bursts (Count)
system.mem_ctrls.dram.perBankWrBursts::5          879                       # Per bank write bursts (Count)
system.mem_ctrls.dram.perBankWrBursts::6          988                       # Per bank write bursts (Count)
system.mem_ctrls.dram.perBankWrBursts::7          924                       # Per bank write bursts (Count)
system.mem_ctrls.dram.perBankWrBursts::8          724                       # Per bank write bursts (Count)
system.mem_ctrls.dram.perBankWrBursts::9          819                       # Per bank write bursts (Count)
system.mem_ctrls.dram.perBankWrBursts::10          682                       # Per bank write bursts (Count)
system.mem_ctrls.dram.perBankWrBursts::11          883                       # Per bank write bursts (Count)
system.mem_ctrls.dram.perBankWrBursts::12          706                       # Per bank write bursts (Count)
system.mem_ctrls.dram.perBankWrBursts::13         1011                       # Per bank write bursts (Count)
system.mem_ctrls.dram.perBankWrBursts::14          742                       # Per bank write bursts (Count)
system.mem_ctrls.dram.perBankWrBursts::15          737                       # Per bank write bursts (Count)
system.mem_ctrls.dram.totQLat               640568000                       # Total ticks spent queuing (Tick)
system.mem_ctrls.dram.totBusLat             108245000                       # Total ticks spent in databus transfers (Tick)
system.mem_ctrls.dram.totMemAccLat         1046486750                       # Total ticks spent from burst creation until serviced by the DRAM (Tick)
system.mem_ctrls.dram.avgQLat                29588.80                       # Average queueing delay per DRAM burst ((Tick/Count))
system.mem_ctrls.dram.avgBusLat               5000.00                       # Average bus latency per DRAM burst ((Tick/Count))
system.mem_ctrls.dram.avgMemAccLat           48338.80                       # Average memory access latency per DRAM burst ((Tick/Count))
system.mem_ctrls.dram.readRowHits               15926                       # Number of row buffer hits during reads (Count)
system.mem_ctrls.dram.writeRowHits              11304                       # Number of row buffer hits during writes (Count)
system.mem_ctrls.dram.readRowHitRate            73.56                       # Row buffer hit rate for reads (Ratio)
system.mem_ctrls.dram.writeRowHitRate           87.11                       # Row buffer hit rate for writes (Ratio)
system.mem_ctrls.dram.bytesPerActivate::samples         7391                       # Bytes accessed per row activation (Byte)
system.mem_ctrls.dram.bytesPerActivate::mean   299.754837                       # Bytes accessed per row activation (Byte)
system.mem_ctrls.dram.bytesPerActivate::gmean   221.985173                       # Bytes accessed per row activation (Byte)
system.mem_ctrls.dram.bytesPerActivate::stdev   250.150678                       # Bytes accessed per row activation (Byte)
system.mem_ctrls.dram.bytesPerActivate::0-127         1367     18.50%     18.50% # Bytes accessed per row activation (Byte)
system.mem_ctrls.dram.bytesPerActivate::128-255         1745     23.61%     42.11% # Bytes accessed per row activation (Byte)
system.mem_ctrls.dram.bytesPerActivate::256-383         3247     43.93%     86.04% # Bytes accessed per row activation (Byte)
system.mem_ctrls.dram.bytesPerActivate::384-511          211      2.85%     88.89% # Bytes accessed per row activation (Byte)
system.mem_ctrls.dram.bytesPerActivate::512-639           70      0.95%     89.84% # Bytes accessed per row activation (Byte)
system.mem_ctrls.dram.bytesPerActivate::640-767           63      0.85%     90.69% # Bytes accessed per row activation (Byte)
system.mem_ctrls.dram.bytesPerActivate::768-895           81      1.10%     91.79% # Bytes accessed per row activation (Byte)
system.mem_ctrls.dram.bytesPerActivate::896-1023           67      0.91%     92.69% # Bytes accessed per row activation (Byte)
system.mem_ctrls.dram.bytesPerActivate::1024-1151          540      7.31%    100.00% # Bytes accessed per row activation (Byte)
system.mem_ctrls.dram.bytesPerActivate::total         7391                       # Bytes accessed per row activation (Byte)
system.mem_ctrls.dram.bytesRead               1385536                       # Total bytes read (Byte)
system.mem_ctrls.dram.bytesWritten             830528                       # Total bytes written (Byte)
system.mem_ctrls.dram.avgRdBW              161.592497                       # Average DRAM read bandwidth in MiBytes/s ((Byte/Second))
system.mem_ctrls.dram.avgWrBW               96.862942                       # Average DRAM write bandwidth in MiBytes/s ((Byte/Second))
system.mem_ctrls.dram.peakBW                 12800.00                       # Theoretical peak bandwidth in MiByte/s ((Byte/Second))
system.mem_ctrls.dram.busUtil                    2.02                       # Data bus utilization in percentage (Ratio)
system.mem_ctrls.dram.busUtilRead                1.26                       # Data bus utilization in percentage for reads (Ratio)
system.mem_ctrls.dram.busUtilWrite               0.76                       # Data bus utilization in percentage for writes (Ratio)
system.mem_ctrls.dram.pageHitRate               78.64                       # Row buffer hit rate, read and write combined (Ratio)
system.mem_ctrls.dram.power_state.pwrStateResidencyTicks::UNDEFINED   8574259500                       # Cumulative time (in ticks) in various power states (Tick)
system.mem_ctrls.dram.rank0.actEnergy        28338660                       # Energy for activate commands per rank (pJ) (Joule)
system.mem_ctrls.dram.rank0.preEnergy        15054765                       # Energy for precharge commands per rank (pJ) (Joule)
system.mem_ctrls.dram.rank0.readEnergy       82224240                       # Energy for read commands per rank (pJ) (Joule)
system.mem_ctrls.dram.rank0.writeEnergy      34833060                       # Energy for write commands per rank (pJ) (Joule)
system.mem_ctrls.dram.rank0.refreshEnergy 676718640.000000                       # Energy for refresh commands per rank (pJ) (Joule)
system.mem_ctrls.dram.rank0.actBackEnergy   1837859550                       # Energy for active background per rank (pJ) (Joule)
system.mem_ctrls.dram.rank0.preBackEnergy   1744844640                       # Energy for precharge background per rank (pJ) (Joule)
system.mem_ctrls.dram.rank0.actPowerDownEnergy            0                       # Energy for active power-down per rank (pJ) (Joule)
system.mem_ctrls.dram.rank0.prePowerDownEnergy            0                       # Energy for precharge power-down per rank (pJ) (Joule)
system.mem_ctrls.dram.rank0.selfRefreshEnergy            0                       # Energy for self refresh per rank (pJ) (Joule)
system.mem_ctrls.dram.rank0.totalEnergy    4419873555                       # Total energy per rank (pJ) (Joule)
system.mem_ctrls.dram.rank0.averagePower   515.481664                       # Core power per rank (mW) (Watt)
system.mem_ctrls.dram.rank0.totalIdleTime            0                       # Total Idle time Per DRAM Rank (Tick)
system.mem_ctrls.dram.rank0.pwrStateTime::IDLE   4509348250                       # Time in different power states (Tick)
system.mem_ctrls.dram.rank0.pwrStateTime::REF    286260000                       # Time in different power states (Tick)
system.mem_ctrls.dram.rank0.pwrStateTime::SREF            0                       # Time in different power states (Tick)
system.mem_ctrls.dram.rank0.pwrStateTime::PRE_PDN            0                       # Time in different power states (Tick)
system.mem_ctrls.dram.rank0.pwrStateTime::ACT   3778651250                       # Time in different power states (Tick)
system.mem_ctrls.dram.rank0.pwrStateTime::ACT_PDN            0                       # Time in different power states (Tick)
system.mem_ctrls.dram.rank1.actEnergy        24461640                       # Energy for activate commands per rank (pJ) (Joule)
system.mem_ctrls.dram.rank1.preEnergy        12994080                       # Energy for precharge commands per rank (pJ) (Joule)
system.mem_ctrls.dram.rank1.readEnergy       72342480                       # Energy for read commands per rank (pJ) (Joule)
system.mem_ctrls.dram.rank1.writeEnergy      32906880                       # Energy for write commands per rank (pJ) (Joule)
system.mem_ctrls.dram.rank1.refreshEnergy 676718640.000000                       # Energy for refresh commands per rank (pJ) (Joule)
system.mem_ctrls.dram.rank1.actBackEnergy   1539919410                       # Energy for active background per rank (pJ) (Joule)
system.mem_ctrls.dram.rank1.preBackEnergy   1995741600                       # Energy for precharge background per rank (pJ) (Joule)
system.mem_ctrls.dram.rank1.actPowerDownEnergy            0                       # Energy for active power-down per rank (pJ) (Joule)
system.mem_ctrls.dram.rank1.prePowerDownEnergy            0                       # Energy for precharge power-down per rank (pJ) (Joule)
system.mem_ctrls.dram.rank1.selfRefreshEnergy            0                       # Energy for self refresh per rank (pJ) (Joule)
system.mem_ctrls.dram.rank1.totalEnergy    4355084730                       # Total energy per rank (pJ) (Joule)
system.mem_ctrls.dram.rank1.averagePower   507.925463                       # Core power per rank (mW) (Watt)
system.mem_ctrls.dram.rank1.totalIdleTime            0                       # Total Idle time Per DRAM Rank (Tick)
system.mem_ctrls.dram.rank1.pwrStateTime::IDLE   5164146000                       # Time in different power states (Tick)
system.mem_ctrls.dram.rank1.pwrStateTime::REF    286260000                       # Time in different power states (Tick)
system.mem_ctrls.dram.rank1.pwrStateTime::SREF            0                       # Time in different power states (Tick)
system.mem_ctrls.dram.rank1.pwrStateTime::PRE_PDN            0                       # Time in different power states (Tick)
system.mem_ctrls.dram.rank1.pwrStateTime::ACT   3123853500                       # Time in different power states (Tick)
system.mem_ctrls.dram.rank1.pwrStateTime::ACT_PDN            0                       # Time in different power states (Tick)
system.mem_ctrls.power_state.pwrStateResidencyTicks::UNDEFINED   8574259500                       # Cumulative time (in ticks) in various power states (Tick)
system.membus.transDist::ReadResp               36952                       # Transaction distribution (Count)
system.membus.transDist::WritebackDirty         11144                       # Transaction distribution (Count)
system.membus.transDist::WritebackClean         25370                       # Transaction distribution (Count)
system.membus.transDist::CleanEvict              8835                       # Transaction distribution (Count)
system.membus.transDist::ReadExReq               8789                       # Transaction distribution (Count)
system.membus.transDist::ReadExResp              8789                       # Transaction distribution (Count)
system.membus.transDist::ReadCleanReq           25871                       # Transaction distribution (Count)
system.membus.transDist::ReadSharedReq          11082                       # Transaction distribution (Count)
system.membus.transDist::InvalidateReq           2156                       # Transaction distribution (Count)
system.membus.pktCount_system.cpu.icache.mem_side_port::system.mem_ctrls.port        77111                       # Packet count per connected requestor and responder (Count)
system.membus.pktCount_system.cpu.dcache.mem_side_port::system.mem_ctrls.port        61877                       # Packet count per connected requestor and responder (Count)
system.membus.pktCount::total                  138988                       # Packet count per connected requestor and responder (Count)
system.membus.pktSize_system.cpu.icache.mem_side_port::system.mem_ctrls.port      3279360                       # Cumulative packet size per connected requestor and responder (Byte)
system.membus.pktSize_system.cpu.dcache.mem_side_port::system.mem_ctrls.port      1984960                       # Cumulative packet size per connected requestor and responder (Byte)
system.membus.pktSize::total                  5264320                       # Cumulative packet size per connected requestor and responder (Byte)
system.membus.snoops                                0                       # Total snoops (Count)
system.membus.snoopTraffic                          0                       # Total snoop traffic (Byte)
system.membus.snoopFanout::samples              47898                       # Request fanout histogram (Count)
system.membus.snoopFanout::mean              0.000063                       # Request fanout histogram (Count)
system.membus.snoopFanout::stdev             0.007914                       # Request fanout histogram (Count)
system.membus.snoopFanout::underflows               0      0.00%      0.00% # Request fanout histogram (Count)
system.membus.snoopFanout::0                    47895     99.99%     99.99% # Request fanout histogram (Count)
system.membus.snoopFanout::1                        3      0.01%    100.00% # Request fanout histogram (Count)
system.membus.snoopFanout::2                        0      0.00%    100.00% # Request fanout histogram (Count)
system.membus.snoopFanout::overflows                0      0.00%    100.00% # Request fanout histogram (Count)
system.membus.snoopFanout::min_value                0                       # Request fanout histogram (Count)
system.membus.snoopFanout::max_value                1                       # Request fanout histogram (Count)
system.membus.snoopFanout::total                47898                       # Request fanout histogram (Count)
system.membus.power_state.pwrStateResidencyTicks::UNDEFINED   8574259500                       # Cumulative time (in ticks) in various power states (Tick)
system.membus.reqLayer0.occupancy           243369000                       # Layer occupancy (ticks) (Tick)
system.membus.reqLayer0.utilization               0.0                       # Layer utilization (Ratio)
system.membus.respLayer1.occupancy          129943250                       # Layer occupancy (ticks) (Tick)
system.membus.respLayer1.utilization              0.0                       # Layer utilization (Ratio)
system.membus.respLayer2.occupancy          103351000                       # Layer occupancy (ticks) (Tick)
system.membus.respLayer2.utilization              0.0                       # Layer utilization (Ratio)
system.membus.snoop_filter.totRequests          93247                       # Total number of requests made to the snoop filter. (Count)
system.membus.snoop_filter.hitSingleRequests        45350                       # Number of requests hitting in the snoop filter with a single holder of the requested data. (Count)
system.membus.snoop_filter.hitMultiRequests            2                       # Number of requests hitting in the snoop filter with multiple (>1) holders of the requested data. (Count)
system.membus.snoop_filter.totSnoops                0                       # Total number of snoops made to the snoop filter. (Count)
system.membus.snoop_filter.hitSingleSnoops            0                       # Number of snoops hitting in the snoop filter with a single holder of the requested data. (Count)
system.membus.snoop_filter.hitMultiSnoops            0                       # Number of snoops hitting in the snoop filter with multiple (>1) holders of the requested data. (Count)
system.voltage_domain.voltage                       1                       # Voltage in Volts (Volt)
system.workload.inst.arm                            0                       # number of arm instructions executed (Count)
system.workload.inst.quiesce                        0                       # number of quiesce instructions executed (Count)

---------- End Simulation Statistics   ----------
