
---------- Begin Simulation Statistics ----------
simSeconds                                   0.125400                       # Number of seconds simulated (Second)
simTicks                                 125399520500                       # Number of ticks simulated (Tick)
finalTick                                125399520500                       # Number of ticks from beginning of simulation (restored from checkpoints and never reset) (Tick)
simFreq                                  1000000000000                       # The number of ticks per simulated second ((Tick/Second))
hostSeconds                                    441.41                       # Real time elapsed on the host (Second)
hostTickRate                                284086778                       # The number of ticks simulated per host second (ticks/s) ((Tick/Second))
hostMemory                                     680488                       # Number of bytes of host memory used (Byte)
simInsts                                    290285834                       # Number of instructions simulated (Count)
simOps                                      299911254                       # Number of ops (including micro ops) simulated (Count)
hostInstRate                                   657629                       # Simulator instruction rate (inst/s) ((Count/Second))
hostOpRate                                     679435                       # Simulator op (including micro ops) rate (op/s) ((Count/Second))
system.clk_domain.clock                          1000                       # Clock period in ticks (Tick)
system.cpu.numCycles                        250799042                       # Number of cpu cycles simulated (Cycle)
system.cpu.numWorkItemsStarted                      0                       # Number of work items this cpu started (Count)
system.cpu.numWorkItemsCompleted                    0                       # Number of work items this cpu completed (Count)
system.cpu.instsAdded                       314835884                       # Number of instructions added to the IQ (excludes non-spec) (Count)
system.cpu.nonSpecInstsAdded                    92126                       # Number of non-speculative instructions added to the IQ (Count)
system.cpu.instsIssued                      313200980                       # Number of instructions issued (Count)
system.cpu.squashedInstsIssued                 213567                       # Number of squashed instructions issued (Count)
system.cpu.squashedInstsExamined             15016755                       # Number of squashed instructions iterated over during squash; mainly for profiling (Count)
system.cpu.squashedOperandsExamined           8610084                       # Number of squashed operands that are examined and possibly removed from graph (Count)
system.cpu.squashedNonSpecRemoved                 181                       # Number of squashed non-spec instructions that were removed (Count)
system.cpu.numIssuedDist::samples           246333119                       # Number of insts issued each cycle (Count)
system.cpu.numIssuedDist::mean               1.271453                       # Number of insts issued each cycle (Count)
system.cpu.numIssuedDist::stdev              1.846585                       # Number of insts issued each cycle (Count)
system.cpu.numIssuedDist::underflows                0      0.00%      0.00% # Number of insts issued each cycle (Count)
system.cpu.numIssuedDist::0                 145500877     59.07%     59.07% # Number of insts issued each cycle (Count)
system.cpu.numIssuedDist::1                  17566389      7.13%     66.20% # Number of insts issued each cycle (Count)
system.cpu.numIssuedDist::2                  25603713     10.39%     76.59% # Number of insts issued each cycle (Count)
system.cpu.numIssuedDist::3                  18748130      7.61%     84.20% # Number of insts issued each cycle (Count)
system.cpu.numIssuedDist::4                  19197814      7.79%     92.00% # Number of insts issued each cycle (Count)
system.cpu.numIssuedDist::5                  10397110      4.22%     96.22% # Number of insts issued each cycle (Count)
system.cpu.numIssuedDist::6                   6579053      2.67%     98.89% # Number of insts issued each cycle (Count)
system.cpu.numIssuedDist::7                   1988613      0.81%     99.69% # Number of insts issued each cycle (Count)
system.cpu.numIssuedDist::8                    751420      0.31%    100.00% # Number of insts issued each cycle (Count)
system.cpu.numIssuedDist::overflows                 0      0.00%    100.00% # Number of insts issued each cycle (Count)
system.cpu.numIssuedDist::min_value                 0                       # Number of insts issued each cycle (Count)
system.cpu.numIssuedDist::max_value                 8                       # Number of insts issued each cycle (Count)
system.cpu.numIssuedDist::total             246333119                       # Number of insts issued each cycle (Count)
system.cpu.statFuBusy::No_OpClass                   0      0.00%      0.00% # attempts to use FU when none available (Count)
system.cpu.statFuBusy::IntAlu                  308652      8.55%      8.55% # attempts to use FU when none available (Count)
system.cpu.statFuBusy::IntMult                 248912      6.90%     15.45% # attempts to use FU when none available (Count)
system.cpu.statFuBusy::IntDiv                       0      0.00%     15.45% # attempts to use FU when none available (Count)
system.cpu.statFuBusy::FloatAdd                     0      0.00%     15.45% # attempts to use FU when none available (Count)
system.cpu.statFuBusy::FloatCmp                     0      0.00%     15.45% # attempts to use FU when none available (Count)
system.cpu.statFuBusy::FloatCvt                     0      0.00%     15.45% # attempts to use FU when none available (Count)
system.cpu.statFuBusy::FloatMult                    0      0.00%     15.45% # attempts to use FU when none available (Count)
system.cpu.statFuBusy::FloatMultAcc                 0      0.00%     15.45% # attempts to use FU when none available (Count)
system.cpu.statFuBusy::FloatDiv                     0      0.00%     15.45% # attempts to use FU when none available (Count)
system.cpu.statFuBusy::FloatMisc                    0      0.00%     15.45% # attempts to use FU when none available (Count)
system.cpu.statFuBusy::FloatSqrt                    0      0.00%     15.45% # attempts to use FU when none available (Count)
system.cpu.statFuBusy::SimdAdd                      0      0.00%     15.45% # attempts to use FU when none available (Count)
system.cpu.statFuBusy::SimdAddAcc                   0      0.00%     15.45% # attempts to use FU when none available (Count)
system.cpu.statFuBusy::SimdAlu                      1      0.00%     15.45% # attempts to use FU when none available (Count)
system.cpu.statFuBusy::SimdCmp                      2      0.00%     15.45% # attempts to use FU when none available (Count)
system.cpu.statFuBusy::SimdCvt                      0      0.00%     15.45% # attempts to use FU when none available (Count)
system.cpu.statFuBusy::SimdMisc                     0      0.00%     15.45% # attempts to use FU when none available (Count)
system.cpu.statFuBusy::SimdMult                     0      0.00%     15.45% # attempts to use FU when none available (Count)
system.cpu.statFuBusy::SimdMultAcc                  0      0.00%     15.45% # attempts to use FU when none available (Count)
system.cpu.statFuBusy::SimdShift                    0      0.00%     15.45% # attempts to use FU when none available (Count)
system.cpu.statFuBusy::SimdShiftAcc                 0      0.00%     15.45% # attempts to use FU when none available (Count)
system.cpu.statFuBusy::SimdDiv                      0      0.00%     15.45% # attempts to use FU when none available (Count)
system.cpu.statFuBusy::SimdSqrt                     0      0.00%     15.45% # attempts to use FU when none available (Count)
system.cpu.statFuBusy::SimdFloatAdd                 0      0.00%     15.45% # attempts to use FU when none available (Count)
system.cpu.statFuBusy::SimdFloatAlu                 0      0.00%     15.45% # attempts to use FU when none available (Count)
system.cpu.statFuBusy::SimdFloatCmp                 0      0.00%     15.45% # attempts to use FU when none available (Count)
system.cpu.statFuBusy::SimdFloatCvt                 0      0.00%     15.45% # attempts to use FU when none available (Count)
system.cpu.statFuBusy::SimdFloatDiv                 0      0.00%     15.45% # attempts to use FU when none available (Count)
system.cpu.statFuBusy::SimdFloatMisc                0      0.00%     15.45% # attempts to use FU when none available (Count)
system.cpu.statFuBusy::SimdFloatMult                0      0.00%     15.45% # attempts to use FU when none available (Count)
system.cpu.statFuBusy::SimdFloatMultAcc             0      0.00%     15.45% # attempts to use FU when none available (Count)
system.cpu.statFuBusy::SimdFloatSqrt                0      0.00%     15.45% # attempts to use FU when none available (Count)
system.cpu.statFuBusy::SimdReduceAdd                0      0.00%     15.45% # attempts to use FU when none available (Count)
system.cpu.statFuBusy::SimdReduceAlu                0      0.00%     15.45% # attempts to use FU when none available (Count)
system.cpu.statFuBusy::SimdReduceCmp                0      0.00%     15.45% # attempts to use FU when none available (Count)
system.cpu.statFuBusy::SimdFloatReduceAdd            0      0.00%     15.45% # attempts to use FU when none available (Count)
system.cpu.statFuBusy::SimdFloatReduceCmp            0      0.00%     15.45% # attempts to use FU when none available (Count)
system.cpu.statFuBusy::SimdAes                      0      0.00%     15.45% # attempts to use FU when none available (Count)
system.cpu.statFuBusy::SimdAesMix                   0      0.00%     15.45% # attempts to use FU when none available (Count)
system.cpu.statFuBusy::SimdSha1Hash                 0      0.00%     15.45% # attempts to use FU when none available (Count)
system.cpu.statFuBusy::SimdSha1Hash2                0      0.00%     15.45% # attempts to use FU when none available (Count)
system.cpu.statFuBusy::SimdSha256Hash               0      0.00%     15.45% # attempts to use FU when none available (Count)
system.cpu.statFuBusy::SimdSha256Hash2              0      0.00%     15.45% # attempts to use FU when none available (Count)
system.cpu.statFuBusy::SimdShaSigma2                0      0.00%     15.45% # attempts to use FU when none available (Count)
system.cpu.statFuBusy::SimdShaSigma3                0      0.00%     15.45% # attempts to use FU when none available (Count)
system.cpu.statFuBusy::SimdPredAlu                  0      0.00%     15.45% # attempts to use FU when none available (Count)
system.cpu.statFuBusy::MemRead                2501869     69.31%     84.75% # attempts to use FU when none available (Count)
system.cpu.statFuBusy::MemWrite                550459     15.25%    100.00% # attempts to use FU when none available (Count)
system.cpu.statFuBusy::FloatMemRead                 0      0.00%    100.00% # attempts to use FU when none available (Count)
system.cpu.statFuBusy::FloatMemWrite                0      0.00%    100.00% # attempts to use FU when none available (Count)
system.cpu.statFuBusy::IprAccess                    0      0.00%    100.00% # attempts to use FU when none available (Count)
system.cpu.statFuBusy::InstPrefetch                 0      0.00%    100.00% # attempts to use FU when none available (Count)
system.cpu.statIssuedInstType_0::No_OpClass        78746      0.03%      0.03% # Number of instructions issued per FU type, per thread (Count)
system.cpu.statIssuedInstType_0::IntAlu     192820392     61.56%     61.59% # Number of instructions issued per FU type, per thread (Count)
system.cpu.statIssuedInstType_0::IntMult      1685410      0.54%     62.13% # Number of instructions issued per FU type, per thread (Count)
system.cpu.statIssuedInstType_0::IntDiv        330170      0.11%     62.23% # Number of instructions issued per FU type, per thread (Count)
system.cpu.statIssuedInstType_0::FloatAdd        90436      0.03%     62.26% # Number of instructions issued per FU type, per thread (Count)
system.cpu.statIssuedInstType_0::FloatCmp        32768      0.01%     62.27% # Number of instructions issued per FU type, per thread (Count)
system.cpu.statIssuedInstType_0::FloatCvt            0      0.00%     62.27% # Number of instructions issued per FU type, per thread (Count)
system.cpu.statIssuedInstType_0::FloatMult        85175      0.03%     62.30% # Number of instructions issued per FU type, per thread (Count)
system.cpu.statIssuedInstType_0::FloatMultAcc            0      0.00%     62.30% # Number of instructions issued per FU type, per thread (Count)
system.cpu.statIssuedInstType_0::FloatDiv            0      0.00%     62.30% # Number of instructions issued per FU type, per thread (Count)
system.cpu.statIssuedInstType_0::FloatMisc        75467      0.02%     62.32% # Number of instructions issued per FU type, per thread (Count)
system.cpu.statIssuedInstType_0::FloatSqrt            0      0.00%     62.32% # Number of instructions issued per FU type, per thread (Count)
system.cpu.statIssuedInstType_0::SimdAdd        65576      0.02%     62.34% # Number of instructions issued per FU type, per thread (Count)
system.cpu.statIssuedInstType_0::SimdAddAcc            0      0.00%     62.34% # Number of instructions issued per FU type, per thread (Count)
system.cpu.statIssuedInstType_0::SimdAlu       131136      0.04%     62.39% # Number of instructions issued per FU type, per thread (Count)
system.cpu.statIssuedInstType_0::SimdCmp       131128      0.04%     62.43% # Number of instructions issued per FU type, per thread (Count)
system.cpu.statIssuedInstType_0::SimdCvt            0      0.00%     62.43% # Number of instructions issued per FU type, per thread (Count)
system.cpu.statIssuedInstType_0::SimdMisc        98356      0.03%     62.46% # Number of instructions issued per FU type, per thread (Count)
system.cpu.statIssuedInstType_0::SimdMult            0      0.00%     62.46% # Number of instructions issued per FU type, per thread (Count)
system.cpu.statIssuedInstType_0::SimdMultAcc            0      0.00%     62.46% # Number of instructions issued per FU type, per thread (Count)
system.cpu.statIssuedInstType_0::SimdShift            0      0.00%     62.46% # Number of instructions issued per FU type, per thread (Count)
system.cpu.statIssuedInstType_0::SimdShiftAcc            0      0.00%     62.46% # Number of instructions issued per FU type, per thread (Count)
system.cpu.statIssuedInstType_0::SimdDiv            0      0.00%     62.46% # Number of instructions issued per FU type, per thread (Count)
system.cpu.statIssuedInstType_0::SimdSqrt            0      0.00%     62.46% # Number of instructions issued per FU type, per thread (Count)
system.cpu.statIssuedInstType_0::SimdFloatAdd            0      0.00%     62.46% # Number of instructions issued per FU type, per thread (Count)
system.cpu.statIssuedInstType_0::SimdFloatAlu            0      0.00%     62.46% # Number of instructions issued per FU type, per thread (Count)
system.cpu.statIssuedInstType_0::SimdFloatCmp            0      0.00%     62.46% # Number of instructions issued per FU type, per thread (Count)
system.cpu.statIssuedInstType_0::SimdFloatCvt            0      0.00%     62.46% # Number of instructions issued per FU type, per thread (Count)
system.cpu.statIssuedInstType_0::SimdFloatDiv            0      0.00%     62.46% # Number of instructions issued per FU type, per thread (Count)
system.cpu.statIssuedInstType_0::SimdFloatMisc            0      0.00%     62.46% # Number of instructions issued per FU type, per thread (Count)
system.cpu.statIssuedInstType_0::SimdFloatMult            0      0.00%     62.46% # Number of instructions issued per FU type, per thread (Count)
system.cpu.statIssuedInstType_0::SimdFloatMultAcc            0      0.00%     62.46% # Number of instructions issued per FU type, per thread (Count)
system.cpu.statIssuedInstType_0::SimdFloatSqrt            0      0.00%     62.46% # Number of instructions issued per FU type, per thread (Count)
system.cpu.statIssuedInstType_0::SimdReduceAdd            0      0.00%     62.46% # Number of instructions issued per FU type, per thread (Count)
system.cpu.statIssuedInstType_0::SimdReduceAlu            0      0.00%     62.46% # Number of instructions issued per FU type, per thread (Count)
system.cpu.statIssuedInstType_0::SimdReduceCmp            0      0.00%     62.46% # Number of instructions issued per FU type, per thread (Count)
system.cpu.statIssuedInstType_0::SimdFloatReduceAdd            0      0.00%     62.46% # Number of instructions issued per FU type, per thread (Count)
system.cpu.statIssuedInstType_0::SimdFloatReduceCmp            0      0.00%     62.46% # Number of instructions issued per FU type, per thread (Count)
system.cpu.statIssuedInstType_0::SimdAes            0      0.00%     62.46% # Number of instructions issued per FU type, per thread (Count)
system.cpu.statIssuedInstType_0::SimdAesMix            0      0.00%     62.46% # Number of instructions issued per FU type, per thread (Count)
system.cpu.statIssuedInstType_0::SimdSha1Hash            0      0.00%     62.46% # Number of instructions issued per FU type, per thread (Count)
system.cpu.statIssuedInstType_0::SimdSha1Hash2            0      0.00%     62.46% # Number of instructions issued per FU type, per thread (Count)
system.cpu.statIssuedInstType_0::SimdSha256Hash            0      0.00%     62.46% # Number of instructions issued per FU type, per thread (Count)
system.cpu.statIssuedInstType_0::SimdSha256Hash2            0      0.00%     62.46% # Number of instructions issued per FU type, per thread (Count)
system.cpu.statIssuedInstType_0::SimdShaSigma2            0      0.00%     62.46% # Number of instructions issued per FU type, per thread (Count)
system.cpu.statIssuedInstType_0::SimdShaSigma3            0      0.00%     62.46% # Number of instructions issued per FU type, per thread (Count)
system.cpu.statIssuedInstType_0::SimdPredAlu            0      0.00%     62.46% # Number of instructions issued per FU type, per thread (Count)
system.cpu.statIssuedInstType_0::MemRead     94630794     30.21%     92.67% # Number of instructions issued per FU type, per thread (Count)
system.cpu.statIssuedInstType_0::MemWrite     22945426      7.33%    100.00% # Number of instructions issued per FU type, per thread (Count)
system.cpu.statIssuedInstType_0::FloatMemRead            0      0.00%    100.00% # Number of instructions issued per FU type, per thread (Count)
system.cpu.statIssuedInstType_0::FloatMemWrite            0      0.00%    100.00% # Number of instructions issued per FU type, per thread (Count)
system.cpu.statIssuedInstType_0::IprAccess            0      0.00%    100.00% # Number of instructions issued per FU type, per thread (Count)
system.cpu.statIssuedInstType_0::InstPrefetch            0      0.00%    100.00% # Number of instructions issued per FU type, per thread (Count)
system.cpu.statIssuedInstType_0::total      313200980                       # Number of instructions issued per FU type, per thread (Count)
system.cpu.issueRate                         1.248813                       # Inst issue rate ((Count/Cycle))
system.cpu.fuBusy                             3609895                       # FU busy when requested (Count)
system.cpu.fuBusyRate                        0.011526                       # FU busy rate (busy events/executed inst) ((Count/Count))
system.cpu.intInstQueueReads                872716525                       # Number of integer instruction queue reads (Count)
system.cpu.intInstQueueWrites               327644049                       # Number of integer instruction queue writes (Count)
system.cpu.intInstQueueWakeupAccesses       308214233                       # Number of integer instruction queue wakeup accesses (Count)
system.cpu.fpInstQueueReads                         0                       # Number of floating instruction queue reads (Count)
system.cpu.fpInstQueueWrites                        0                       # Number of floating instruction queue writes (Count)
system.cpu.fpInstQueueWakeupAccesses                0                       # Number of floating instruction queue wakeup accesses (Count)
system.cpu.vecInstQueueReads                  3842016                       # Number of vector instruction queue reads (Count)
system.cpu.vecInstQueueWrites                 2341522                       # Number of vector instruction queue writes (Count)
system.cpu.vecInstQueueWakeupAccesses         1713603                       # Number of vector instruction queue wakeup accesses (Count)
system.cpu.intAluAccesses                   314840710                       # Number of integer alu accesses (Count)
system.cpu.fpAluAccesses                            0                       # Number of floating point alu accesses (Count)
system.cpu.vecAluAccesses                     1891419                       # Number of vector alu accesses (Count)
system.cpu.numInsts                         312356348                       # Number of executed instructions (Count)
system.cpu.numLoadInsts                      94338344                       # Number of load instructions executed (Count)
system.cpu.numSquashedInsts                    844632                       # Number of squashed instructions skipped in execute (Count)
system.cpu.numSwp                                   0                       # Number of swp insts executed (Count)
system.cpu.numNop                               74752                       # Number of nop insts executed (Count)
system.cpu.numRefs                          117139088                       # Number of memory reference insts executed (Count)
system.cpu.numBranches                       47706896                       # Number of branches executed (Count)
system.cpu.numStoreInsts                     22800744                       # Number of stores executed (Count)
system.cpu.numRate                           1.245445                       # Inst execution rate ((Count/Cycle))
system.cpu.timesIdled                          223965                       # Number of times that the entire CPU went into an idle state and unscheduled itself (Count)
system.cpu.idleCycles                         4465923                       # Total number of cycles that the CPU has spent unscheduled due to idling (Cycle)
system.cpu.committedInsts                   290285834                       # Number of Instructions Simulated (Count)
system.cpu.committedOps                     299911254                       # Number of Ops (including micro ops) Simulated (Count)
system.cpu.cpi                               0.863973                       # CPI: Cycles Per Instruction ((Cycle/Count))
system.cpu.totalCpi                          0.863973                       # CPI: Total CPI of All Threads ((Cycle/Count))
system.cpu.ipc                               1.157444                       # IPC: Instructions Per Cycle ((Count/Cycle))
system.cpu.totalIpc                          1.157444                       # IPC: Total IPC of All Threads ((Count/Cycle))
system.cpu.intRegfileReads                  355267947                       # Number of integer regfile reads (Count)
system.cpu.intRegfileWrites                 242688519                       # Number of integer regfile writes (Count)
system.cpu.vecRegfileReads                    1776894                       # number of vector regfile reads (Count)
system.cpu.vecRegfileWrites                   1060161                       # number of vector regfile writes (Count)
system.cpu.ccRegfileReads                    91163148                       # number of cc regfile reads (Count)
system.cpu.ccRegfileWrites                   90763664                       # number of cc regfile writes (Count)
system.cpu.miscRegfileReads                 622112239                       # number of misc regfile reads (Count)
system.cpu.miscRegfileWrites                   315380                       # number of misc regfile writes (Count)
system.cpu.MemDepUnit__0.insertedLoads       93351262                       # Number of loads inserted to the mem dependence unit. (Count)
system.cpu.MemDepUnit__0.insertedStores      23587381                       # Number of stores inserted to the mem dependence unit. (Count)
system.cpu.MemDepUnit__0.conflictingLoads     28779461                       # Number of conflicting loads. (Count)
system.cpu.MemDepUnit__0.conflictingStores      4813836                       # Number of conflicting stores. (Count)
system.cpu.MemDepUnit__1.insertedLoads              0                       # Number of loads inserted to the mem dependence unit. (Count)
system.cpu.MemDepUnit__1.insertedStores             0                       # Number of stores inserted to the mem dependence unit. (Count)
system.cpu.MemDepUnit__1.conflictingLoads            0                       # Number of conflicting loads. (Count)
system.cpu.MemDepUnit__1.conflictingStores            0                       # Number of conflicting stores. (Count)
system.cpu.MemDepUnit__2.insertedLoads              0                       # Number of loads inserted to the mem dependence unit. (Count)
system.cpu.MemDepUnit__2.insertedStores             0                       # Number of stores inserted to the mem dependence unit. (Count)
system.cpu.MemDepUnit__2.conflictingLoads            0                       # Number of conflicting loads. (Count)
system.cpu.MemDepUnit__2.conflictingStores            0                       # Number of conflicting stores. (Count)
system.cpu.MemDepUnit__3.insertedLoads              0                       # Number of loads inserted to the mem dependence unit. (Count)
system.cpu.MemDepUnit__3.insertedStores             0                       # Number of stores inserted to the mem dependence unit. (Count)
system.cpu.MemDepUnit__3.conflictingLoads            0                       # Number of conflicting loads. (Count)
system.cpu.MemDepUnit__3.conflictingStores            0                       # Number of conflicting stores. (Count)
system.cpu.branchPred.lookups                49994674                       # Number of BP lookups (Count)
system.cpu.branchPred.condPredicted          34129724                       # Number of conditional branches predicted (Count)
system.cpu.branchPred.condIncorrect            408933                       # Number of conditional branches incorrect (Count)
system.cpu.branchPred.BTBLookups             30818463                       # Number of BTB lookups (Count)
system.cpu.branchPred.BTBHits                30654901                       # Number of BTB hits (Count)
system.cpu.branchPred.BTBHitRatio            0.994693                       # BTB Hit Ratio (Ratio)
system.cpu.branchPred.RASUsed                 1322257                       # Number of times the RAS was used to get a target. (Count)
system.cpu.branchPred.RASIncorrect                 50                       # Number of incorrect RAS predictions. (Count)
system.cpu.branchPred.indirectLookups          229479                       # Number of indirect predictor lookups. (Count)
system.cpu.branchPred.indirectHits             227823                       # Number of indirect target hits. (Count)
system.cpu.branchPred.indirectMisses             1656                       # Number of indirect misses. (Count)
system.cpu.branchPred.indirectMispredicted          216                       # Number of mispredicted indirect branches. (Count)
system.cpu.commit.commitSquashedInsts        15027145                       # The number of squashed insts skipped by commit (Count)
system.cpu.commit.commitNonSpecStalls           91945                       # The number of times commit has been forced to stall to communicate backwards (Count)
system.cpu.commit.branchMispredicts            342520                       # The number of times a branch was mispredicted (Count)
system.cpu.commit.numCommittedDist::samples    244283962                       # Number of insts commited each cycle (Count)
system.cpu.commit.numCommittedDist::mean     1.227980                       # Number of insts commited each cycle (Count)
system.cpu.commit.numCommittedDist::stdev     2.643634                       # Number of insts commited each cycle (Count)
system.cpu.commit.numCommittedDist::underflows            0      0.00%      0.00% # Number of insts commited each cycle (Count)
system.cpu.commit.numCommittedDist::0       181271408     74.21%     74.21% # Number of insts commited each cycle (Count)
system.cpu.commit.numCommittedDist::1        18282763      7.48%     81.69% # Number of insts commited each cycle (Count)
system.cpu.commit.numCommittedDist::2         9134789      3.74%     85.43% # Number of insts commited each cycle (Count)
system.cpu.commit.numCommittedDist::3         1999180      0.82%     86.25% # Number of insts commited each cycle (Count)
system.cpu.commit.numCommittedDist::4         1011258      0.41%     86.66% # Number of insts commited each cycle (Count)
system.cpu.commit.numCommittedDist::5         1423310      0.58%     87.24% # Number of insts commited each cycle (Count)
system.cpu.commit.numCommittedDist::6         1051679      0.43%     87.67% # Number of insts commited each cycle (Count)
system.cpu.commit.numCommittedDist::7          922311      0.38%     88.05% # Number of insts commited each cycle (Count)
system.cpu.commit.numCommittedDist::8        29187264     11.95%    100.00% # Number of insts commited each cycle (Count)
system.cpu.commit.numCommittedDist::overflows            0      0.00%    100.00% # Number of insts commited each cycle (Count)
system.cpu.commit.numCommittedDist::min_value            0                       # Number of insts commited each cycle (Count)
system.cpu.commit.numCommittedDist::max_value            8                       # Number of insts commited each cycle (Count)
system.cpu.commit.numCommittedDist::total    244283962                       # Number of insts commited each cycle (Count)
system.cpu.commit.instsCommitted            290350406                       # Number of instructions committed (Count)
system.cpu.commit.opsCommitted              299975826                       # Number of ops (including micro ops) committed (Count)
system.cpu.commit.memRefs                   111288544                       # Number of memory references committed (Count)
system.cpu.commit.loads                      89700554                       # Number of loads committed (Count)
system.cpu.commit.amos                          45934                       # Number of atomic instructions committed (Count)
system.cpu.commit.membars                       45944                       # Number of memory barriers committed (Count)
system.cpu.commit.branches                   46252477                       # Number of branches committed (Count)
system.cpu.commit.vectorInstructions          1575086                       # Number of committed Vector instructions. (Count)
system.cpu.commit.floating                          0                       # Number of committed floating point instructions. (Count)
system.cpu.commit.integer                   258851895                       # Number of committed integer instructions. (Count)
system.cpu.commit.functionCalls               1181937                       # Number of function calls committed. (Count)
system.cpu.commit.committedInstType_0::No_OpClass        78717      0.03%      0.03% # Class of committed instruction (Count)
system.cpu.commit.committedInstType_0::IntAlu    185893337     61.97%     62.00% # Class of committed instruction (Count)
system.cpu.commit.committedInstType_0::IntMult      1683136      0.56%     62.56% # Class of committed instruction (Count)
system.cpu.commit.committedInstType_0::IntDiv       330123      0.11%     62.67% # Class of committed instruction (Count)
system.cpu.commit.committedInstType_0::FloatAdd        90436      0.03%     62.70% # Class of committed instruction (Count)
system.cpu.commit.committedInstType_0::FloatCmp        32768      0.01%     62.71% # Class of committed instruction (Count)
system.cpu.commit.committedInstType_0::FloatCvt            0      0.00%     62.71% # Class of committed instruction (Count)
system.cpu.commit.committedInstType_0::FloatMult        83883      0.03%     62.74% # Class of committed instruction (Count)
system.cpu.commit.committedInstType_0::FloatMultAcc            0      0.00%     62.74% # Class of committed instruction (Count)
system.cpu.commit.committedInstType_0::FloatDiv            0      0.00%     62.74% # Class of committed instruction (Count)
system.cpu.commit.committedInstType_0::FloatMisc        68812      0.02%     62.76% # Class of committed instruction (Count)
system.cpu.commit.committedInstType_0::FloatSqrt            0      0.00%     62.76% # Class of committed instruction (Count)
system.cpu.commit.committedInstType_0::SimdAdd        65556      0.02%     62.78% # Class of committed instruction (Count)
system.cpu.commit.committedInstType_0::SimdAddAcc            0      0.00%     62.78% # Class of committed instruction (Count)
system.cpu.commit.committedInstType_0::SimdAlu       131098      0.04%     62.82% # Class of committed instruction (Count)
system.cpu.commit.committedInstType_0::SimdCmp       131092      0.04%     62.87% # Class of committed instruction (Count)
system.cpu.commit.committedInstType_0::SimdCvt            0      0.00%     62.87% # Class of committed instruction (Count)
system.cpu.commit.committedInstType_0::SimdMisc        98324      0.03%     62.90% # Class of committed instruction (Count)
system.cpu.commit.committedInstType_0::SimdMult            0      0.00%     62.90% # Class of committed instruction (Count)
system.cpu.commit.committedInstType_0::SimdMultAcc            0      0.00%     62.90% # Class of committed instruction (Count)
system.cpu.commit.committedInstType_0::SimdShift            0      0.00%     62.90% # Class of committed instruction (Count)
system.cpu.commit.committedInstType_0::SimdShiftAcc            0      0.00%     62.90% # Class of committed instruction (Count)
system.cpu.commit.committedInstType_0::SimdDiv            0      0.00%     62.90% # Class of committed instruction (Count)
system.cpu.commit.committedInstType_0::SimdSqrt            0      0.00%     62.90% # Class of committed instruction (Count)
system.cpu.commit.committedInstType_0::SimdFloatAdd            0      0.00%     62.90% # Class of committed instruction (Count)
system.cpu.commit.committedInstType_0::SimdFloatAlu            0      0.00%     62.90% # Class of committed instruction (Count)
system.cpu.commit.committedInstType_0::SimdFloatCmp            0      0.00%     62.90% # Class of committed instruction (Count)
system.cpu.commit.committedInstType_0::SimdFloatCvt            0      0.00%     62.90% # Class of committed instruction (Count)
system.cpu.commit.committedInstType_0::SimdFloatDiv            0      0.00%     62.90% # Class of committed instruction (Count)
system.cpu.commit.committedInstType_0::SimdFloatMisc            0      0.00%     62.90% # Class of committed instruction (Count)
system.cpu.commit.committedInstType_0::SimdFloatMult            0      0.00%     62.90% # Class of committed instruction (Count)
system.cpu.commit.committedInstType_0::SimdFloatMultAcc            0      0.00%     62.90% # Class of committed instruction (Count)
system.cpu.commit.committedInstType_0::SimdFloatSqrt            0      0.00%     62.90% # Class of committed instruction (Count)
system.cpu.commit.committedInstType_0::SimdReduceAdd            0      0.00%     62.90% # Class of committed instruction (Count)
system.cpu.commit.committedInstType_0::SimdReduceAlu            0      0.00%     62.90% # Class of committed instruction (Count)
system.cpu.commit.committedInstType_0::SimdReduceCmp            0      0.00%     62.90% # Class of committed instruction (Count)
system.cpu.commit.committedInstType_0::SimdFloatReduceAdd            0      0.00%     62.90% # Class of committed instruction (Count)
system.cpu.commit.committedInstType_0::SimdFloatReduceCmp            0      0.00%     62.90% # Class of committed instruction (Count)
system.cpu.commit.committedInstType_0::SimdAes            0      0.00%     62.90% # Class of committed instruction (Count)
system.cpu.commit.committedInstType_0::SimdAesMix            0      0.00%     62.90% # Class of committed instruction (Count)
system.cpu.commit.committedInstType_0::SimdSha1Hash            0      0.00%     62.90% # Class of committed instruction (Count)
system.cpu.commit.committedInstType_0::SimdSha1Hash2            0      0.00%     62.90% # Class of committed instruction (Count)
system.cpu.commit.committedInstType_0::SimdSha256Hash            0      0.00%     62.90% # Class of committed instruction (Count)
system.cpu.commit.committedInstType_0::SimdSha256Hash2            0      0.00%     62.90% # Class of committed instruction (Count)
system.cpu.commit.committedInstType_0::SimdShaSigma2            0      0.00%     62.90% # Class of committed instruction (Count)
system.cpu.commit.committedInstType_0::SimdShaSigma3            0      0.00%     62.90% # Class of committed instruction (Count)
system.cpu.commit.committedInstType_0::SimdPredAlu            0      0.00%     62.90% # Class of committed instruction (Count)
system.cpu.commit.committedInstType_0::MemRead     89700554     29.90%     92.80% # Class of committed instruction (Count)
system.cpu.commit.committedInstType_0::MemWrite     21587990      7.20%    100.00% # Class of committed instruction (Count)
system.cpu.commit.committedInstType_0::FloatMemRead            0      0.00%    100.00% # Class of committed instruction (Count)
system.cpu.commit.committedInstType_0::FloatMemWrite            0      0.00%    100.00% # Class of committed instruction (Count)
system.cpu.commit.committedInstType_0::IprAccess            0      0.00%    100.00% # Class of committed instruction (Count)
system.cpu.commit.committedInstType_0::InstPrefetch            0      0.00%    100.00% # Class of committed instruction (Count)
system.cpu.commit.committedInstType_0::total    299975826                       # Class of committed instruction (Count)
system.cpu.commit.commitEligibleSamples      29187264                       # number cycles where commit BW limit reached (Cycle)
system.cpu.dcache.demandHits::cpu.data       70490007                       # number of demand (read+write) hits (Count)
system.cpu.dcache.demandHits::total          70490007                       # number of demand (read+write) hits (Count)
system.cpu.dcache.overallHits::cpu.data      70595173                       # number of overall hits (Count)
system.cpu.dcache.overallHits::total         70595173                       # number of overall hits (Count)
system.cpu.dcache.demandMisses::cpu.data      8778554                       # number of demand (read+write) misses (Count)
system.cpu.dcache.demandMisses::total         8778554                       # number of demand (read+write) misses (Count)
system.cpu.dcache.overallMisses::cpu.data      8778560                       # number of overall misses (Count)
system.cpu.dcache.overallMisses::total        8778560                       # number of overall misses (Count)
system.cpu.dcache.demandMissLatency::cpu.data 388045256110                       # number of demand (read+write) miss ticks (Tick)
system.cpu.dcache.demandMissLatency::total 388045256110                       # number of demand (read+write) miss ticks (Tick)
system.cpu.dcache.overallMissLatency::cpu.data 388045256110                       # number of overall miss ticks (Tick)
system.cpu.dcache.overallMissLatency::total 388045256110                       # number of overall miss ticks (Tick)
system.cpu.dcache.demandAccesses::cpu.data     79268561                       # number of demand (read+write) accesses (Count)
system.cpu.dcache.demandAccesses::total      79268561                       # number of demand (read+write) accesses (Count)
system.cpu.dcache.overallAccesses::cpu.data     79373733                       # number of overall (read+write) accesses (Count)
system.cpu.dcache.overallAccesses::total     79373733                       # number of overall (read+write) accesses (Count)
system.cpu.dcache.demandMissRate::cpu.data     0.110744                       # miss rate for demand accesses (Ratio)
system.cpu.dcache.demandMissRate::total      0.110744                       # miss rate for demand accesses (Ratio)
system.cpu.dcache.overallMissRate::cpu.data     0.110598                       # miss rate for overall accesses (Ratio)
system.cpu.dcache.overallMissRate::total     0.110598                       # miss rate for overall accesses (Ratio)
system.cpu.dcache.demandAvgMissLatency::cpu.data 44203.778448                       # average overall miss latency ((Cycle/Count))
system.cpu.dcache.demandAvgMissLatency::total 44203.778448                       # average overall miss latency ((Cycle/Count))
system.cpu.dcache.overallAvgMissLatency::cpu.data 44203.748235                       # average overall miss latency ((Cycle/Count))
system.cpu.dcache.overallAvgMissLatency::total 44203.748235                       # average overall miss latency ((Cycle/Count))
system.cpu.dcache.blockedCycles::no_mshrs       859385                       # number of cycles access was blocked (Cycle)
system.cpu.dcache.blockedCycles::no_targets            0                       # number of cycles access was blocked (Cycle)
system.cpu.dcache.blockedCauses::no_mshrs        18513                       # number of times access was blocked (Count)
system.cpu.dcache.blockedCauses::no_targets            0                       # number of times access was blocked (Count)
system.cpu.dcache.avgBlocked::no_mshrs      46.420623                       # average number of cycles each access was blocked ((Cycle/Count))
system.cpu.dcache.avgBlocked::no_targets          nan                       # average number of cycles each access was blocked ((Cycle/Count))
system.cpu.dcache.writebacks::writebacks        64110                       # number of writebacks (Count)
system.cpu.dcache.writebacks::total             64110                       # number of writebacks (Count)
system.cpu.dcache.demandMshrHits::cpu.data      5978761                       # number of demand (read+write) MSHR hits (Count)
system.cpu.dcache.demandMshrHits::total       5978761                       # number of demand (read+write) MSHR hits (Count)
system.cpu.dcache.overallMshrHits::cpu.data      5978761                       # number of overall MSHR hits (Count)
system.cpu.dcache.overallMshrHits::total      5978761                       # number of overall MSHR hits (Count)
system.cpu.dcache.demandMshrMisses::cpu.data      2799793                       # number of demand (read+write) MSHR misses (Count)
system.cpu.dcache.demandMshrMisses::total      2799793                       # number of demand (read+write) MSHR misses (Count)
system.cpu.dcache.overallMshrMisses::cpu.data      2799799                       # number of overall MSHR misses (Count)
system.cpu.dcache.overallMshrMisses::total      2799799                       # number of overall MSHR misses (Count)
system.cpu.dcache.demandMshrMissLatency::cpu.data 152007229240                       # number of demand (read+write) MSHR miss ticks (Tick)
system.cpu.dcache.demandMshrMissLatency::total 152007229240                       # number of demand (read+write) MSHR miss ticks (Tick)
system.cpu.dcache.overallMshrMissLatency::cpu.data 152007818240                       # number of overall MSHR miss ticks (Tick)
system.cpu.dcache.overallMshrMissLatency::total 152007818240                       # number of overall MSHR miss ticks (Tick)
system.cpu.dcache.demandMshrMissRate::cpu.data     0.035320                       # mshr miss ratio for demand accesses (Ratio)
system.cpu.dcache.demandMshrMissRate::total     0.035320                       # mshr miss ratio for demand accesses (Ratio)
system.cpu.dcache.overallMshrMissRate::cpu.data     0.035274                       # mshr miss ratio for overall accesses (Ratio)
system.cpu.dcache.overallMshrMissRate::total     0.035274                       # mshr miss ratio for overall accesses (Ratio)
system.cpu.dcache.demandAvgMshrMissLatency::cpu.data 54292.309910                       # average overall mshr miss latency ((Cycle/Count))
system.cpu.dcache.demandAvgMshrMissLatency::total 54292.309910                       # average overall mshr miss latency ((Cycle/Count))
system.cpu.dcache.overallAvgMshrMissLatency::cpu.data 54292.403933                       # average overall mshr miss latency ((Cycle/Count))
system.cpu.dcache.overallAvgMshrMissLatency::total 54292.403933                       # average overall mshr miss latency ((Cycle/Count))
system.cpu.dcache.replacements                2799290                       # number of replacements (Count)
system.cpu.dcache.LoadLockedReq.hits::cpu.data           40                       # number of LoadLockedReq hits (Count)
system.cpu.dcache.LoadLockedReq.hits::total           40                       # number of LoadLockedReq hits (Count)
system.cpu.dcache.LoadLockedReq.misses::cpu.data            4                       # number of LoadLockedReq misses (Count)
system.cpu.dcache.LoadLockedReq.misses::total            4                       # number of LoadLockedReq misses (Count)
system.cpu.dcache.LoadLockedReq.missLatency::cpu.data       393500                       # number of LoadLockedReq miss ticks (Tick)
system.cpu.dcache.LoadLockedReq.missLatency::total       393500                       # number of LoadLockedReq miss ticks (Tick)
system.cpu.dcache.LoadLockedReq.accesses::cpu.data           44                       # number of LoadLockedReq accesses(hits+misses) (Count)
system.cpu.dcache.LoadLockedReq.accesses::total           44                       # number of LoadLockedReq accesses(hits+misses) (Count)
system.cpu.dcache.LoadLockedReq.missRate::cpu.data     0.090909                       # miss rate for LoadLockedReq accesses (Ratio)
system.cpu.dcache.LoadLockedReq.missRate::total     0.090909                       # miss rate for LoadLockedReq accesses (Ratio)
system.cpu.dcache.LoadLockedReq.avgMissLatency::cpu.data        98375                       # average LoadLockedReq miss latency ((Tick/Count))
system.cpu.dcache.LoadLockedReq.avgMissLatency::total        98375                       # average LoadLockedReq miss latency ((Tick/Count))
system.cpu.dcache.LoadLockedReq.mshrHits::cpu.data            1                       # number of LoadLockedReq MSHR hits (Count)
system.cpu.dcache.LoadLockedReq.mshrHits::total            1                       # number of LoadLockedReq MSHR hits (Count)
system.cpu.dcache.LoadLockedReq.mshrMisses::cpu.data            3                       # number of LoadLockedReq MSHR misses (Count)
system.cpu.dcache.LoadLockedReq.mshrMisses::total            3                       # number of LoadLockedReq MSHR misses (Count)
system.cpu.dcache.LoadLockedReq.mshrMissLatency::cpu.data       325500                       # number of LoadLockedReq MSHR miss ticks (Tick)
system.cpu.dcache.LoadLockedReq.mshrMissLatency::total       325500                       # number of LoadLockedReq MSHR miss ticks (Tick)
system.cpu.dcache.LoadLockedReq.mshrMissRate::cpu.data     0.068182                       # mshr miss rate for LoadLockedReq accesses (Ratio)
system.cpu.dcache.LoadLockedReq.mshrMissRate::total     0.068182                       # mshr miss rate for LoadLockedReq accesses (Ratio)
system.cpu.dcache.LoadLockedReq.avgMshrMissLatency::cpu.data       108500                       # average LoadLockedReq mshr miss latency ((Tick/Count))
system.cpu.dcache.LoadLockedReq.avgMshrMissLatency::total       108500                       # average LoadLockedReq mshr miss latency ((Tick/Count))
system.cpu.dcache.ReadReq.hits::cpu.data     49016296                       # number of ReadReq hits (Count)
system.cpu.dcache.ReadReq.hits::total        49016296                       # number of ReadReq hits (Count)
system.cpu.dcache.ReadReq.misses::cpu.data      8710213                       # number of ReadReq misses (Count)
system.cpu.dcache.ReadReq.misses::total       8710213                       # number of ReadReq misses (Count)
system.cpu.dcache.ReadReq.missLatency::cpu.data 383172345000                       # number of ReadReq miss ticks (Tick)
system.cpu.dcache.ReadReq.missLatency::total 383172345000                       # number of ReadReq miss ticks (Tick)
system.cpu.dcache.ReadReq.accesses::cpu.data     57726509                       # number of ReadReq accesses(hits+misses) (Count)
system.cpu.dcache.ReadReq.accesses::total     57726509                       # number of ReadReq accesses(hits+misses) (Count)
system.cpu.dcache.ReadReq.missRate::cpu.data     0.150888                       # miss rate for ReadReq accesses (Ratio)
system.cpu.dcache.ReadReq.missRate::total     0.150888                       # miss rate for ReadReq accesses (Ratio)
system.cpu.dcache.ReadReq.avgMissLatency::cpu.data 43991.156703                       # average ReadReq miss latency ((Tick/Count))
system.cpu.dcache.ReadReq.avgMissLatency::total 43991.156703                       # average ReadReq miss latency ((Tick/Count))
system.cpu.dcache.ReadReq.mshrHits::cpu.data      5923072                       # number of ReadReq MSHR hits (Count)
system.cpu.dcache.ReadReq.mshrHits::total      5923072                       # number of ReadReq MSHR hits (Count)
system.cpu.dcache.ReadReq.mshrMisses::cpu.data      2787141                       # number of ReadReq MSHR misses (Count)
system.cpu.dcache.ReadReq.mshrMisses::total      2787141                       # number of ReadReq MSHR misses (Count)
system.cpu.dcache.ReadReq.mshrMissLatency::cpu.data 151012307001                       # number of ReadReq MSHR miss ticks (Tick)
system.cpu.dcache.ReadReq.mshrMissLatency::total 151012307001                       # number of ReadReq MSHR miss ticks (Tick)
system.cpu.dcache.ReadReq.mshrMissRate::cpu.data     0.048282                       # mshr miss rate for ReadReq accesses (Ratio)
system.cpu.dcache.ReadReq.mshrMissRate::total     0.048282                       # mshr miss rate for ReadReq accesses (Ratio)
system.cpu.dcache.ReadReq.avgMshrMissLatency::cpu.data 54181.796687                       # average ReadReq mshr miss latency ((Tick/Count))
system.cpu.dcache.ReadReq.avgMshrMissLatency::total 54181.796687                       # average ReadReq mshr miss latency ((Tick/Count))
system.cpu.dcache.SoftPFReq.hits::cpu.data       105166                       # number of SoftPFReq hits (Count)
system.cpu.dcache.SoftPFReq.hits::total        105166                       # number of SoftPFReq hits (Count)
system.cpu.dcache.SoftPFReq.misses::cpu.data            6                       # number of SoftPFReq misses (Count)
system.cpu.dcache.SoftPFReq.misses::total            6                       # number of SoftPFReq misses (Count)
system.cpu.dcache.SoftPFReq.accesses::cpu.data       105172                       # number of SoftPFReq accesses(hits+misses) (Count)
system.cpu.dcache.SoftPFReq.accesses::total       105172                       # number of SoftPFReq accesses(hits+misses) (Count)
system.cpu.dcache.SoftPFReq.missRate::cpu.data     0.000057                       # miss rate for SoftPFReq accesses (Ratio)
system.cpu.dcache.SoftPFReq.missRate::total     0.000057                       # miss rate for SoftPFReq accesses (Ratio)
system.cpu.dcache.SoftPFReq.mshrMisses::cpu.data            6                       # number of SoftPFReq MSHR misses (Count)
system.cpu.dcache.SoftPFReq.mshrMisses::total            6                       # number of SoftPFReq MSHR misses (Count)
system.cpu.dcache.SoftPFReq.mshrMissLatency::cpu.data       589000                       # number of SoftPFReq MSHR miss ticks (Tick)
system.cpu.dcache.SoftPFReq.mshrMissLatency::total       589000                       # number of SoftPFReq MSHR miss ticks (Tick)
system.cpu.dcache.SoftPFReq.mshrMissRate::cpu.data     0.000057                       # mshr miss rate for SoftPFReq accesses (Ratio)
system.cpu.dcache.SoftPFReq.mshrMissRate::total     0.000057                       # mshr miss rate for SoftPFReq accesses (Ratio)
system.cpu.dcache.SoftPFReq.avgMshrMissLatency::cpu.data 98166.666667                       # average SoftPFReq mshr miss latency ((Tick/Count))
system.cpu.dcache.SoftPFReq.avgMshrMissLatency::total 98166.666667                       # average SoftPFReq mshr miss latency ((Tick/Count))
system.cpu.dcache.StoreCondReq.hits::cpu.data           10                       # number of StoreCondReq hits (Count)
system.cpu.dcache.StoreCondReq.hits::total           10                       # number of StoreCondReq hits (Count)
system.cpu.dcache.StoreCondReq.accesses::cpu.data           10                       # number of StoreCondReq accesses(hits+misses) (Count)
system.cpu.dcache.StoreCondReq.accesses::total           10                       # number of StoreCondReq accesses(hits+misses) (Count)
system.cpu.dcache.SwapReq.hits::cpu.data        45933                       # number of SwapReq hits (Count)
system.cpu.dcache.SwapReq.hits::total           45933                       # number of SwapReq hits (Count)
system.cpu.dcache.SwapReq.misses::cpu.data            1                       # number of SwapReq misses (Count)
system.cpu.dcache.SwapReq.misses::total             1                       # number of SwapReq misses (Count)
system.cpu.dcache.SwapReq.missLatency::cpu.data        95000                       # number of SwapReq miss ticks (Tick)
system.cpu.dcache.SwapReq.missLatency::total        95000                       # number of SwapReq miss ticks (Tick)
system.cpu.dcache.SwapReq.accesses::cpu.data        45934                       # number of SwapReq accesses(hits+misses) (Count)
system.cpu.dcache.SwapReq.accesses::total        45934                       # number of SwapReq accesses(hits+misses) (Count)
system.cpu.dcache.SwapReq.missRate::cpu.data     0.000022                       # miss rate for SwapReq accesses (Ratio)
system.cpu.dcache.SwapReq.missRate::total     0.000022                       # miss rate for SwapReq accesses (Ratio)
system.cpu.dcache.SwapReq.avgMissLatency::cpu.data        95000                       # average SwapReq miss latency ((Tick/Count))
system.cpu.dcache.SwapReq.avgMissLatency::total        95000                       # average SwapReq miss latency ((Tick/Count))
system.cpu.dcache.SwapReq.mshrHits::cpu.data            1                       # number of SwapReq MSHR hits (Count)
system.cpu.dcache.SwapReq.mshrHits::total            1                       # number of SwapReq MSHR hits (Count)
system.cpu.dcache.WriteLineReq.misses::cpu.data         2054                       # number of WriteLineReq misses (Count)
system.cpu.dcache.WriteLineReq.misses::total         2054                       # number of WriteLineReq misses (Count)
system.cpu.dcache.WriteLineReq.missLatency::cpu.data     39781912                       # number of WriteLineReq miss ticks (Tick)
system.cpu.dcache.WriteLineReq.missLatency::total     39781912                       # number of WriteLineReq miss ticks (Tick)
system.cpu.dcache.WriteLineReq.accesses::cpu.data         2054                       # number of WriteLineReq accesses(hits+misses) (Count)
system.cpu.dcache.WriteLineReq.accesses::total         2054                       # number of WriteLineReq accesses(hits+misses) (Count)
system.cpu.dcache.WriteLineReq.missRate::cpu.data            1                       # miss rate for WriteLineReq accesses (Ratio)
system.cpu.dcache.WriteLineReq.missRate::total            1                       # miss rate for WriteLineReq accesses (Ratio)
system.cpu.dcache.WriteLineReq.avgMissLatency::cpu.data 19368.019474                       # average WriteLineReq miss latency ((Tick/Count))
system.cpu.dcache.WriteLineReq.avgMissLatency::total 19368.019474                       # average WriteLineReq miss latency ((Tick/Count))
system.cpu.dcache.WriteLineReq.mshrMisses::cpu.data         2054                       # number of WriteLineReq MSHR misses (Count)
system.cpu.dcache.WriteLineReq.mshrMisses::total         2054                       # number of WriteLineReq MSHR misses (Count)
system.cpu.dcache.WriteLineReq.mshrMissLatency::cpu.data     37727912                       # number of WriteLineReq MSHR miss ticks (Tick)
system.cpu.dcache.WriteLineReq.mshrMissLatency::total     37727912                       # number of WriteLineReq MSHR miss ticks (Tick)
system.cpu.dcache.WriteLineReq.mshrMissRate::cpu.data            1                       # mshr miss rate for WriteLineReq accesses (Ratio)
system.cpu.dcache.WriteLineReq.mshrMissRate::total            1                       # mshr miss rate for WriteLineReq accesses (Ratio)
system.cpu.dcache.WriteLineReq.avgMshrMissLatency::cpu.data 18368.019474                       # average WriteLineReq mshr miss latency ((Tick/Count))
system.cpu.dcache.WriteLineReq.avgMshrMissLatency::total 18368.019474                       # average WriteLineReq mshr miss latency ((Tick/Count))
system.cpu.dcache.WriteReq.hits::cpu.data     21473711                       # number of WriteReq hits (Count)
system.cpu.dcache.WriteReq.hits::total       21473711                       # number of WriteReq hits (Count)
system.cpu.dcache.WriteReq.misses::cpu.data        66287                       # number of WriteReq misses (Count)
system.cpu.dcache.WriteReq.misses::total        66287                       # number of WriteReq misses (Count)
system.cpu.dcache.WriteReq.missLatency::cpu.data   4833129198                       # number of WriteReq miss ticks (Tick)
system.cpu.dcache.WriteReq.missLatency::total   4833129198                       # number of WriteReq miss ticks (Tick)
system.cpu.dcache.WriteReq.accesses::cpu.data     21539998                       # number of WriteReq accesses(hits+misses) (Count)
system.cpu.dcache.WriteReq.accesses::total     21539998                       # number of WriteReq accesses(hits+misses) (Count)
system.cpu.dcache.WriteReq.missRate::cpu.data     0.003077                       # miss rate for WriteReq accesses (Ratio)
system.cpu.dcache.WriteReq.missRate::total     0.003077                       # miss rate for WriteReq accesses (Ratio)
system.cpu.dcache.WriteReq.avgMissLatency::cpu.data 72912.172794                       # average WriteReq miss latency ((Tick/Count))
system.cpu.dcache.WriteReq.avgMissLatency::total 72912.172794                       # average WriteReq miss latency ((Tick/Count))
system.cpu.dcache.WriteReq.mshrHits::cpu.data        55689                       # number of WriteReq MSHR hits (Count)
system.cpu.dcache.WriteReq.mshrHits::total        55689                       # number of WriteReq MSHR hits (Count)
system.cpu.dcache.WriteReq.mshrMisses::cpu.data        10598                       # number of WriteReq MSHR misses (Count)
system.cpu.dcache.WriteReq.mshrMisses::total        10598                       # number of WriteReq MSHR misses (Count)
system.cpu.dcache.WriteReq.mshrMissLatency::cpu.data    957194327                       # number of WriteReq MSHR miss ticks (Tick)
system.cpu.dcache.WriteReq.mshrMissLatency::total    957194327                       # number of WriteReq MSHR miss ticks (Tick)
system.cpu.dcache.WriteReq.mshrMissRate::cpu.data     0.000492                       # mshr miss rate for WriteReq accesses (Ratio)
system.cpu.dcache.WriteReq.mshrMissRate::total     0.000492                       # mshr miss rate for WriteReq accesses (Ratio)
system.cpu.dcache.WriteReq.avgMshrMissLatency::cpu.data 90318.392810                       # average WriteReq mshr miss latency ((Tick/Count))
system.cpu.dcache.WriteReq.avgMshrMissLatency::total 90318.392810                       # average WriteReq mshr miss latency ((Tick/Count))
system.cpu.dcache.power_state.pwrStateResidencyTicks::UNDEFINED 125399520500                       # Cumulative time (in ticks) in various power states (Tick)
system.cpu.dcache.tags.tagsInUse           511.882371                       # Average ticks per tags in use ((Tick/Count))
system.cpu.dcache.tags.totalRefs             73440958                       # Total number of references to valid blocks. (Count)
system.cpu.dcache.tags.sampledRefs            2799802                       # Sample count of references to valid blocks. (Count)
system.cpu.dcache.tags.avgRefs              26.230768                       # Average number of references to valid blocks. ((Count/Count))
system.cpu.dcache.tags.warmupTick              145000                       # The tick when the warmup percentage was hit. (Tick)
system.cpu.dcache.tags.occupancies::cpu.data   511.882371                       # Average occupied blocks per tick, per requestor ((Count/Tick))
system.cpu.dcache.tags.avgOccs::cpu.data     0.999770                       # Average percentage of cache occupancy ((Ratio/Tick))
system.cpu.dcache.tags.avgOccs::total        0.999770                       # Average percentage of cache occupancy ((Ratio/Tick))
system.cpu.dcache.tags.occupanciesTaskId::1024          512                       # Occupied blocks per task id (Count)
system.cpu.dcache.tags.ageTaskId_1024::0           77                       # Occupied blocks per task id, per block age (Count)
system.cpu.dcache.tags.ageTaskId_1024::1            7                       # Occupied blocks per task id, per block age (Count)
system.cpu.dcache.tags.ageTaskId_1024::2           83                       # Occupied blocks per task id, per block age (Count)
system.cpu.dcache.tags.ageTaskId_1024::3          182                       # Occupied blocks per task id, per block age (Count)
system.cpu.dcache.tags.ageTaskId_1024::4          163                       # Occupied blocks per task id, per block age (Count)
system.cpu.dcache.tags.ratioOccsTaskId::1024            1                       # Ratio of occupied blocks and all blocks, per task id (Ratio)
system.cpu.dcache.tags.tagAccesses          161639244                       # Number of tag accesses (Count)
system.cpu.dcache.tags.dataAccesses         161639244                       # Number of data accesses (Count)
system.cpu.dcache.tags.power_state.pwrStateResidencyTicks::UNDEFINED 125399520500                       # Cumulative time (in ticks) in various power states (Tick)
system.cpu.decode.idleCycles                 29141098                       # Number of cycles decode is idle (Cycle)
system.cpu.decode.blockedCycles             165601279                       # Number of cycles decode is blocked (Cycle)
system.cpu.decode.runCycles                  41969391                       # Number of cycles decode is running (Cycle)
system.cpu.decode.unblockCycles               9238024                       # Number of cycles decode is unblocking (Cycle)
system.cpu.decode.squashCycles                 383327                       # Number of cycles decode is squashing (Cycle)
system.cpu.decode.branchResolved             30349997                       # Number of times decode resolved a branch (Count)
system.cpu.decode.branchMispred                 66440                       # Number of times decode detected a branch misprediction (Count)
system.cpu.decode.decodedInsts              318500331                       # Number of instructions handled by decode (Count)
system.cpu.decode.squashedInsts                140250                       # Number of squashed instructions handled by decode (Count)
system.cpu.fetch.icacheStallCycles           53095057                       # Number of cycles fetch is stalled on an Icache miss (Cycle)
system.cpu.fetch.insts                      311221049                       # Number of instructions fetch has processed (Count)
system.cpu.fetch.branches                    49994674                       # Number of branches that fetch encountered (Count)
system.cpu.fetch.predictedBranches           32204981                       # Number of branches that fetch has predicted taken (Count)
system.cpu.fetch.cycles                     192788082                       # Number of cycles fetch has run and was not squashing or blocked (Cycle)
system.cpu.fetch.squashCycles                  899518                       # Number of cycles fetch has spent squashing (Cycle)
system.cpu.fetch.miscStallCycles                   26                       # Number of cycles fetch has spent waiting on interrupts, or bad addresses, or out of MSHRs (Cycle)
system.cpu.fetch.pendingTrapStallCycles           122                       # Number of stall cycles due to pending traps (Cycle)
system.cpu.fetch.icacheWaitRetryStallCycles           73                       # Number of stall cycles due to full MSHR (Cycle)
system.cpu.fetch.cacheLines                  46954112                       # Number of cache lines fetched (Count)
system.cpu.fetch.icacheSquashes                180386                       # Number of outstanding Icache misses that were squashed (Count)
system.cpu.fetch.nisnDist::samples          246333119                       # Number of instructions fetched each cycle (Total) (Count)
system.cpu.fetch.nisnDist::mean              1.312391                       # Number of instructions fetched each cycle (Total) (Count)
system.cpu.fetch.nisnDist::stdev             2.488261                       # Number of instructions fetched each cycle (Total) (Count)
system.cpu.fetch.nisnDist::underflows               0      0.00%      0.00% # Number of instructions fetched each cycle (Total) (Count)
system.cpu.fetch.nisnDist::0                180652898     73.34%     73.34% # Number of instructions fetched each cycle (Total) (Count)
system.cpu.fetch.nisnDist::1                  1722820      0.70%     74.04% # Number of instructions fetched each cycle (Total) (Count)
system.cpu.fetch.nisnDist::2                 15396795      6.25%     80.29% # Number of instructions fetched each cycle (Total) (Count)
system.cpu.fetch.nisnDist::3                  1670453      0.68%     80.96% # Number of instructions fetched each cycle (Total) (Count)
system.cpu.fetch.nisnDist::4                 14553225      5.91%     86.87% # Number of instructions fetched each cycle (Total) (Count)
system.cpu.fetch.nisnDist::5                  2080206      0.84%     87.72% # Number of instructions fetched each cycle (Total) (Count)
system.cpu.fetch.nisnDist::6                 11727642      4.76%     92.48% # Number of instructions fetched each cycle (Total) (Count)
system.cpu.fetch.nisnDist::7                  1454842      0.59%     93.07% # Number of instructions fetched each cycle (Total) (Count)
system.cpu.fetch.nisnDist::8                 17074238      6.93%    100.00% # Number of instructions fetched each cycle (Total) (Count)
system.cpu.fetch.nisnDist::overflows                0      0.00%    100.00% # Number of instructions fetched each cycle (Total) (Count)
system.cpu.fetch.nisnDist::min_value                0                       # Number of instructions fetched each cycle (Total) (Count)
system.cpu.fetch.nisnDist::max_value                8                       # Number of instructions fetched each cycle (Total) (Count)
system.cpu.fetch.nisnDist::total            246333119                       # Number of instructions fetched each cycle (Total) (Count)
system.cpu.fetch.branchRate                  0.199342                       # Number of branch fetches per cycle (Ratio)
system.cpu.fetch.rate                        1.240918                       # Number of inst fetches per cycle ((Count/Cycle))
system.cpu.icache.demandHits::cpu.inst       46699059                       # number of demand (read+write) hits (Count)
system.cpu.icache.demandHits::total          46699059                       # number of demand (read+write) hits (Count)
system.cpu.icache.overallHits::cpu.inst      46699059                       # number of overall hits (Count)
system.cpu.icache.overallHits::total         46699059                       # number of overall hits (Count)
system.cpu.icache.demandMisses::cpu.inst       255053                       # number of demand (read+write) misses (Count)
system.cpu.icache.demandMisses::total          255053                       # number of demand (read+write) misses (Count)
system.cpu.icache.overallMisses::cpu.inst       255053                       # number of overall misses (Count)
system.cpu.icache.overallMisses::total         255053                       # number of overall misses (Count)
system.cpu.icache.demandMissLatency::cpu.inst   5918297998                       # number of demand (read+write) miss ticks (Tick)
system.cpu.icache.demandMissLatency::total   5918297998                       # number of demand (read+write) miss ticks (Tick)
system.cpu.icache.overallMissLatency::cpu.inst   5918297998                       # number of overall miss ticks (Tick)
system.cpu.icache.overallMissLatency::total   5918297998                       # number of overall miss ticks (Tick)
system.cpu.icache.demandAccesses::cpu.inst     46954112                       # number of demand (read+write) accesses (Count)
system.cpu.icache.demandAccesses::total      46954112                       # number of demand (read+write) accesses (Count)
system.cpu.icache.overallAccesses::cpu.inst     46954112                       # number of overall (read+write) accesses (Count)
system.cpu.icache.overallAccesses::total     46954112                       # number of overall (read+write) accesses (Count)
system.cpu.icache.demandMissRate::cpu.inst     0.005432                       # miss rate for demand accesses (Ratio)
system.cpu.icache.demandMissRate::total      0.005432                       # miss rate for demand accesses (Ratio)
system.cpu.icache.overallMissRate::cpu.inst     0.005432                       # miss rate for overall accesses (Ratio)
system.cpu.icache.overallMissRate::total     0.005432                       # miss rate for overall accesses (Ratio)
system.cpu.icache.demandAvgMissLatency::cpu.inst 23204.188925                       # average overall miss latency ((Cycle/Count))
system.cpu.icache.demandAvgMissLatency::total 23204.188925                       # average overall miss latency ((Cycle/Count))
system.cpu.icache.overallAvgMissLatency::cpu.inst 23204.188925                       # average overall miss latency ((Cycle/Count))
system.cpu.icache.overallAvgMissLatency::total 23204.188925                       # average overall miss latency ((Cycle/Count))
system.cpu.icache.blockedCycles::no_mshrs          955                       # number of cycles access was blocked (Cycle)
system.cpu.icache.blockedCycles::no_targets            0                       # number of cycles access was blocked (Cycle)
system.cpu.icache.blockedCauses::no_mshrs           16                       # number of times access was blocked (Count)
system.cpu.icache.blockedCauses::no_targets            0                       # number of times access was blocked (Count)
system.cpu.icache.avgBlocked::no_mshrs      59.687500                       # average number of cycles each access was blocked ((Cycle/Count))
system.cpu.icache.avgBlocked::no_targets          nan                       # average number of cycles each access was blocked ((Cycle/Count))
system.cpu.icache.writebacks::writebacks       243703                       # number of writebacks (Count)
system.cpu.icache.writebacks::total            243703                       # number of writebacks (Count)
system.cpu.icache.demandMshrHits::cpu.inst        10849                       # number of demand (read+write) MSHR hits (Count)
system.cpu.icache.demandMshrHits::total         10849                       # number of demand (read+write) MSHR hits (Count)
system.cpu.icache.overallMshrHits::cpu.inst        10849                       # number of overall MSHR hits (Count)
system.cpu.icache.overallMshrHits::total        10849                       # number of overall MSHR hits (Count)
system.cpu.icache.demandMshrMisses::cpu.inst       244204                       # number of demand (read+write) MSHR misses (Count)
system.cpu.icache.demandMshrMisses::total       244204                       # number of demand (read+write) MSHR misses (Count)
system.cpu.icache.overallMshrMisses::cpu.inst       244204                       # number of overall MSHR misses (Count)
system.cpu.icache.overallMshrMisses::total       244204                       # number of overall MSHR misses (Count)
system.cpu.icache.demandMshrMissLatency::cpu.inst   5522501999                       # number of demand (read+write) MSHR miss ticks (Tick)
system.cpu.icache.demandMshrMissLatency::total   5522501999                       # number of demand (read+write) MSHR miss ticks (Tick)
system.cpu.icache.overallMshrMissLatency::cpu.inst   5522501999                       # number of overall MSHR miss ticks (Tick)
system.cpu.icache.overallMshrMissLatency::total   5522501999                       # number of overall MSHR miss ticks (Tick)
system.cpu.icache.demandMshrMissRate::cpu.inst     0.005201                       # mshr miss ratio for demand accesses (Ratio)
system.cpu.icache.demandMshrMissRate::total     0.005201                       # mshr miss ratio for demand accesses (Ratio)
system.cpu.icache.overallMshrMissRate::cpu.inst     0.005201                       # mshr miss ratio for overall accesses (Ratio)
system.cpu.icache.overallMshrMissRate::total     0.005201                       # mshr miss ratio for overall accesses (Ratio)
system.cpu.icache.demandAvgMshrMissLatency::cpu.inst 22614.297878                       # average overall mshr miss latency ((Cycle/Count))
system.cpu.icache.demandAvgMshrMissLatency::total 22614.297878                       # average overall mshr miss latency ((Cycle/Count))
system.cpu.icache.overallAvgMshrMissLatency::cpu.inst 22614.297878                       # average overall mshr miss latency ((Cycle/Count))
system.cpu.icache.overallAvgMshrMissLatency::total 22614.297878                       # average overall mshr miss latency ((Cycle/Count))
system.cpu.icache.replacements                 243703                       # number of replacements (Count)
system.cpu.icache.ReadReq.hits::cpu.inst     46699059                       # number of ReadReq hits (Count)
system.cpu.icache.ReadReq.hits::total        46699059                       # number of ReadReq hits (Count)
system.cpu.icache.ReadReq.misses::cpu.inst       255053                       # number of ReadReq misses (Count)
system.cpu.icache.ReadReq.misses::total        255053                       # number of ReadReq misses (Count)
system.cpu.icache.ReadReq.missLatency::cpu.inst   5918297998                       # number of ReadReq miss ticks (Tick)
system.cpu.icache.ReadReq.missLatency::total   5918297998                       # number of ReadReq miss ticks (Tick)
system.cpu.icache.ReadReq.accesses::cpu.inst     46954112                       # number of ReadReq accesses(hits+misses) (Count)
system.cpu.icache.ReadReq.accesses::total     46954112                       # number of ReadReq accesses(hits+misses) (Count)
system.cpu.icache.ReadReq.missRate::cpu.inst     0.005432                       # miss rate for ReadReq accesses (Ratio)
system.cpu.icache.ReadReq.missRate::total     0.005432                       # miss rate for ReadReq accesses (Ratio)
system.cpu.icache.ReadReq.avgMissLatency::cpu.inst 23204.188925                       # average ReadReq miss latency ((Tick/Count))
system.cpu.icache.ReadReq.avgMissLatency::total 23204.188925                       # average ReadReq miss latency ((Tick/Count))
system.cpu.icache.ReadReq.mshrHits::cpu.inst        10849                       # number of ReadReq MSHR hits (Count)
system.cpu.icache.ReadReq.mshrHits::total        10849                       # number of ReadReq MSHR hits (Count)
system.cpu.icache.ReadReq.mshrMisses::cpu.inst       244204                       # number of ReadReq MSHR misses (Count)
system.cpu.icache.ReadReq.mshrMisses::total       244204                       # number of ReadReq MSHR misses (Count)
system.cpu.icache.ReadReq.mshrMissLatency::cpu.inst   5522501999                       # number of ReadReq MSHR miss ticks (Tick)
system.cpu.icache.ReadReq.mshrMissLatency::total   5522501999                       # number of ReadReq MSHR miss ticks (Tick)
system.cpu.icache.ReadReq.mshrMissRate::cpu.inst     0.005201                       # mshr miss rate for ReadReq accesses (Ratio)
system.cpu.icache.ReadReq.mshrMissRate::total     0.005201                       # mshr miss rate for ReadReq accesses (Ratio)
system.cpu.icache.ReadReq.avgMshrMissLatency::cpu.inst 22614.297878                       # average ReadReq mshr miss latency ((Tick/Count))
system.cpu.icache.ReadReq.avgMshrMissLatency::total 22614.297878                       # average ReadReq mshr miss latency ((Tick/Count))
system.cpu.icache.power_state.pwrStateResidencyTicks::UNDEFINED 125399520500                       # Cumulative time (in ticks) in various power states (Tick)
system.cpu.icache.tags.tagsInUse           494.596399                       # Average ticks per tags in use ((Tick/Count))
system.cpu.icache.tags.totalRefs             46943262                       # Total number of references to valid blocks. (Count)
system.cpu.icache.tags.sampledRefs             244203                       # Sample count of references to valid blocks. (Count)
system.cpu.icache.tags.avgRefs             192.230489                       # Average number of references to valid blocks. ((Count/Count))
system.cpu.icache.tags.warmupTick               77000                       # The tick when the warmup percentage was hit. (Tick)
system.cpu.icache.tags.occupancies::cpu.inst   494.596399                       # Average occupied blocks per tick, per requestor ((Count/Tick))
system.cpu.icache.tags.avgOccs::cpu.inst     0.966009                       # Average percentage of cache occupancy ((Ratio/Tick))
system.cpu.icache.tags.avgOccs::total        0.966009                       # Average percentage of cache occupancy ((Ratio/Tick))
system.cpu.icache.tags.occupanciesTaskId::1024          500                       # Occupied blocks per task id (Count)
system.cpu.icache.tags.ageTaskId_1024::0           99                       # Occupied blocks per task id, per block age (Count)
system.cpu.icache.tags.ageTaskId_1024::3            7                       # Occupied blocks per task id, per block age (Count)
system.cpu.icache.tags.ageTaskId_1024::4          394                       # Occupied blocks per task id, per block age (Count)
system.cpu.icache.tags.ratioOccsTaskId::1024     0.976562                       # Ratio of occupied blocks and all blocks, per task id (Ratio)
system.cpu.icache.tags.tagAccesses           94152427                       # Number of tag accesses (Count)
system.cpu.icache.tags.dataAccesses          94152427                       # Number of data accesses (Count)
system.cpu.icache.tags.power_state.pwrStateResidencyTicks::UNDEFINED 125399520500                       # Cumulative time (in ticks) in various power states (Tick)
system.cpu.iew.idleCycles                           0                       # Number of cycles IEW is idle (Cycle)
system.cpu.iew.squashCycles                    383327                       # Number of cycles IEW is squashing (Cycle)
system.cpu.iew.blockCycles                    4094062                       # Number of cycles IEW is blocking (Cycle)
[...]
system.mem_ctrls.dram.bwRead::cpu.inst      124633587                       # Total read bandwidth from this memory ((Byte/Second))
system.mem_ctrls.dram.bwRead::cpu.data     1427773498                       # Total read bandwidth from this memory ((Byte/Second))
system.mem_ctrls.dram.bwRead::total        1552407084                       # Total read bandwidth from this memory ((Byte/Second))
system.mem_ctrls.dram.bwInstRead::cpu.inst    124633587                       # Instruction read bandwidth from this memory ((Byte/Second))
system.mem_ctrls.dram.bwInstRead::total     124633587                       # Instruction read bandwidth from this memory ((Byte/Second))
system.mem_ctrls.dram.bwWrite::writebacks     32719742                       # Write bandwidth from this memory ((Byte/Second))
system.mem_ctrls.dram.bwWrite::total         32719742                       # Write bandwidth from this memory ((Byte/Second))
system.mem_ctrls.dram.bwTotal::writebacks     32719742                       # Total bandwidth to/from this memory ((Byte/Second))
system.mem_ctrls.dram.bwTotal::cpu.inst     124633587                       # Total bandwidth to/from this memory ((Byte/Second))
system.mem_ctrls.dram.bwTotal::cpu.data    1427773498                       # Total bandwidth to/from this memory ((Byte/Second))
system.mem_ctrls.dram.bwTotal::total       1585126827                       # Total bandwidth to/from this memory ((Byte/Second))
system.mem_ctrls.dram.readBursts              2792569                       # Number of DRAM read bursts (Count)
system.mem_ctrls.dram.writeBursts               61820                       # Number of DRAM write bursts (Count)
system.mem_ctrls.dram.perBankRdBursts::0       328814                       # Per bank write bursts (Count)
system.mem_ctrls.dram.perBankRdBursts::1       423774                       # Per bank write bursts (Count)
system.mem_ctrls.dram.perBankRdBursts::2       423795                       # Per bank write bursts (Count)
system.mem_ctrls.dram.perBankRdBursts::3       424135                       # Per bank write bursts (Count)
system.mem_ctrls.dram.perBankRdBursts::4       424129                       # Per bank write bursts (Count)
system.mem_ctrls.dram.perBankRdBursts::5       423872                       # Per bank write bursts (Count)
system.mem_ctrls.dram.perBankRdBursts::6       273140                       # Per bank write bursts (Count)
system.mem_ctrls.dram.perBankRdBursts::7         5007                       # Per bank write bursts (Count)
system.mem_ctrls.dram.perBankRdBursts::8         3907                       # Per bank write bursts (Count)
system.mem_ctrls.dram.perBankRdBursts::9         4151                       # Per bank write bursts (Count)
system.mem_ctrls.dram.perBankRdBursts::10        20330                       # Per bank write bursts (Count)
system.mem_ctrls.dram.perBankRdBursts::11         4025                       # Per bank write bursts (Count)
system.mem_ctrls.dram.perBankRdBursts::12        20625                       # Per bank write bursts (Count)
system.mem_ctrls.dram.perBankRdBursts::13         4608                       # Per bank write bursts (Count)
system.mem_ctrls.dram.perBankRdBursts::14         4185                       # Per bank write bursts (Count)
system.mem_ctrls.dram.perBankRdBursts::15         4072                       # Per bank write bursts (Count)
system.mem_ctrls.dram.perBankWrBursts::0         3721                       # Per bank write bursts (Count)
system.mem_ctrls.dram.perBankWrBursts::1         3641                       # Per bank write bursts (Count)
system.mem_ctrls.dram.perBankWrBursts::2         3663                       # Per bank write bursts (Count)
system.mem_ctrls.dram.perBankWrBursts::3         4105                       # Per bank write bursts (Count)
system.mem_ctrls.dram.perBankWrBursts::4         4064                       # Per bank write bursts (Count)
system.mem_ctrls.dram.perBankWrBursts::5         3627                       # Per bank write bursts (Count)
system.mem_ctrls.dram.perBankWrBursts::6         3756                       # Per bank write bursts (Count)
system.mem_ctrls.dram.perBankWrBursts::7         4445                       # Per bank write bursts (Count)
system.mem_ctrls.dram.perBankWrBursts::8         3412                       # Per bank write bursts (Count)
system.mem_ctrls.dram.perBankWrBursts::9         4052                       # Per bank write bursts (Count)
system.mem_ctrls.dram.perBankWrBursts::10         3279                       # Per bank write bursts (Count)
system.mem_ctrls.dram.perBankWrBursts::11         3911                       # Per bank write bursts (Count)
system.mem_ctrls.dram.perBankWrBursts::12         3729                       # Per bank write bursts (Count)
system.mem_ctrls.dram.perBankWrBursts::13         5054                       # Per bank write bursts (Count)
system.mem_ctrls.dram.perBankWrBursts::14         3718                       # Per bank write bursts (Count)
system.mem_ctrls.dram.perBankWrBursts::15         3643                       # Per bank write bursts (Count)
system.mem_ctrls.dram.totQLat             12109983750                       # Total ticks spent queuing (Tick)
system.mem_ctrls.dram.totBusLat           13962845000                       # Total ticks spent in databus transfers (Tick)
system.mem_ctrls.dram.totMemAccLat        64470652500                       # Total ticks spent from burst creation until serviced by the DRAM (Tick)
system.mem_ctrls.dram.avgQLat                 4336.50                       # Average queueing delay per DRAM burst ((Tick/Count))
system.mem_ctrls.dram.avgBusLat               5000.00                       # Average bus latency per DRAM burst ((Tick/Count))
system.mem_ctrls.dram.avgMemAccLat           23086.50                       # Average memory access latency per DRAM burst ((Tick/Count))
system.mem_ctrls.dram.readRowHits             2572816                       # Number of row buffer hits during reads (Count)
system.mem_ctrls.dram.writeRowHits              54265                       # Number of row buffer hits during writes (Count)
system.mem_ctrls.dram.readRowHitRate            92.13                       # Row buffer hit rate for reads (Ratio)
system.mem_ctrls.dram.writeRowHitRate           87.78                       # Row buffer hit rate for writes (Ratio)
system.mem_ctrls.dram.bytesPerActivate::samples       227298                       # Bytes accessed per row activation (Byte)
system.mem_ctrls.dram.bytesPerActivate::mean   803.698968                       # Bytes accessed per row activation (Byte)
system.mem_ctrls.dram.bytesPerActivate::gmean   634.393972                       # Bytes accessed per row activation (Byte)
system.mem_ctrls.dram.bytesPerActivate::stdev   355.659838                       # Bytes accessed per row activation (Byte)
system.mem_ctrls.dram.bytesPerActivate::0-127        18580      8.17%      8.17% # Bytes accessed per row activation (Byte)
system.mem_ctrls.dram.bytesPerActivate::128-255        15122      6.65%     14.83% # Bytes accessed per row activation (Byte)
system.mem_ctrls.dram.bytesPerActivate::256-383         9692      4.26%     19.09% # Bytes accessed per row activation (Byte)
system.mem_ctrls.dram.bytesPerActivate::384-511        10777      4.74%     23.83% # Bytes accessed per row activation (Byte)
system.mem_ctrls.dram.bytesPerActivate::512-639         4950      2.18%     26.01% # Bytes accessed per row activation (Byte)
system.mem_ctrls.dram.bytesPerActivate::640-767         4414      1.94%     27.95% # Bytes accessed per row activation (Byte)
system.mem_ctrls.dram.bytesPerActivate::768-895         4313      1.90%     29.85% # Bytes accessed per row activation (Byte)
system.mem_ctrls.dram.bytesPerActivate::896-1023         4144      1.82%     31.67% # Bytes accessed per row activation (Byte)
system.mem_ctrls.dram.bytesPerActivate::1024-1151       155306     68.33%    100.00% # Bytes accessed per row activation (Byte)
system.mem_ctrls.dram.bytesPerActivate::total       227298                       # Bytes accessed per row activation (Byte)
system.mem_ctrls.dram.bytesRead             178724416                       # Total bytes read (Byte)
system.mem_ctrls.dram.bytesWritten            3956480                       # Total bytes written (Byte)
system.mem_ctrls.dram.avgRdBW             1425.240027                       # Average DRAM read bandwidth in MiBytes/s ((Byte/Second))
system.mem_ctrls.dram.avgWrBW               31.550998                       # Average DRAM write bandwidth in MiBytes/s ((Byte/Second))
system.mem_ctrls.dram.peakBW                 12800.00                       # Theoretical peak bandwidth in MiByte/s ((Byte/Second))
system.mem_ctrls.dram.busUtil                   11.38                       # Data bus utilization in percentage (Ratio)
system.mem_ctrls.dram.busUtilRead               11.13                       # Data bus utilization in percentage for reads (Ratio)
system.mem_ctrls.dram.busUtilWrite               0.25                       # Data bus utilization in percentage for writes (Ratio)
system.mem_ctrls.dram.pageHitRate               92.04                       # Row buffer hit rate, read and write combined (Ratio)
system.mem_ctrls.dram.power_state.pwrStateResidencyTicks::UNDEFINED 125399520500                       # Cumulative time (in ticks) in various power states (Tick)
system.mem_ctrls.dram.rank0.actEnergy      1480357620                       # Energy for activate commands per rank (pJ) (Joule)
system.mem_ctrls.dram.rank0.preEnergy       786805965                       # Energy for precharge commands per rank (pJ) (Joule)
system.mem_ctrls.dram.rank0.readEnergy    19468388100                       # Energy for read commands per rank (pJ) (Joule)
system.mem_ctrls.dram.rank0.writeEnergy     161934840                       # Energy for write commands per rank (pJ) (Joule)
system.mem_ctrls.dram.rank0.refreshEnergy 9898777200.000002                       # Energy for refresh commands per rank (pJ) (Joule)
system.mem_ctrls.dram.rank0.actBackEnergy  49326337950                       # Energy for active background per rank (pJ) (Joule)
system.mem_ctrls.dram.rank0.preBackEnergy   6615447360                       # Energy for precharge background per rank (pJ) (Joule)
system.mem_ctrls.dram.rank0.actPowerDownEnergy            0                       # Energy for active power-down per rank (pJ) (Joule)
system.mem_ctrls.dram.rank0.prePowerDownEnergy            0                       # Energy for precharge power-down per rank (pJ) (Joule)
system.mem_ctrls.dram.rank0.selfRefreshEnergy            0                       # Energy for self refresh per rank (pJ) (Joule)
system.mem_ctrls.dram.rank0.totalEnergy   87738049035                       # Total energy per rank (pJ) (Joule)
system.mem_ctrls.dram.rank0.averagePower   699.668138                       # Core power per rank (mW) (Watt)
system.mem_ctrls.dram.rank0.totalIdleTime            0                       # Total Idle time Per DRAM Rank (Tick)
system.mem_ctrls.dram.rank0.pwrStateTime::IDLE  16271864000                       # Time in different power states (Tick)
system.mem_ctrls.dram.rank0.pwrStateTime::REF   4187300000                       # Time in different power states (Tick)
system.mem_ctrls.dram.rank0.pwrStateTime::SREF            0                       # Time in different power states (Tick)
system.mem_ctrls.dram.rank0.pwrStateTime::PRE_PDN            0                       # Time in different power states (Tick)
system.mem_ctrls.dram.rank0.pwrStateTime::ACT 104940356500                       # Time in different power states (Tick)
system.mem_ctrls.dram.rank0.pwrStateTime::ACT_PDN            0                       # Time in different power states (Tick)
system.mem_ctrls.dram.rank1.actEnergy       142614360                       # Energy for activate commands per rank (pJ) (Joule)
system.mem_ctrls.dram.rank1.preEnergy        75789945                       # Energy for precharge commands per rank (pJ) (Joule)
system.mem_ctrls.dram.rank1.readEnergy      470547420                       # Energy for read commands per rank (pJ) (Joule)
system.mem_ctrls.dram.rank1.writeEnergy     160765560                       # Energy for write commands per rank (pJ) (Joule)
system.mem_ctrls.dram.rank1.refreshEnergy 9898777200.000002                       # Energy for refresh commands per rank (pJ) (Joule)
system.mem_ctrls.dram.rank1.actBackEnergy  28260961380                       # Energy for active background per rank (pJ) (Joule)
system.mem_ctrls.dram.rank1.preBackEnergy  24354711840                       # Energy for precharge background per rank (pJ) (Joule)
system.mem_ctrls.dram.rank1.actPowerDownEnergy            0                       # Energy for active power-down per rank (pJ) (Joule)
system.mem_ctrls.dram.rank1.prePowerDownEnergy            0                       # Energy for precharge power-down per rank (pJ) (Joule)
system.mem_ctrls.dram.rank1.selfRefreshEnergy            0                       # Energy for self refresh per rank (pJ) (Joule)
system.mem_ctrls.dram.rank1.totalEnergy   63364167705                       # Total energy per rank (pJ) (Joule)
system.mem_ctrls.dram.rank1.averagePower   505.298325                       # Core power per rank (mW) (Watt)
system.mem_ctrls.dram.rank1.totalIdleTime            0                       # Total Idle time Per DRAM Rank (Tick)
system.mem_ctrls.dram.rank1.pwrStateTime::IDLE  63042245250                       # Time in different power states (Tick)
system.mem_ctrls.dram.rank1.pwrStateTime::REF   4187300000                       # Time in different power states (Tick)
system.mem_ctrls.dram.rank1.pwrStateTime::SREF            0                       # Time in different power states (Tick)
system.mem_ctrls.dram.rank1.pwrStateTime::PRE_PDN            0                       # Time in different power states (Tick)
system.mem_ctrls.dram.rank1.pwrStateTime::ACT  58169975250                       # Time in different power states (Tick)
system.mem_ctrls.dram.rank1.pwrStateTime::ACT_PDN            0                       # Time in different power states (Tick)
system.mem_ctrls.power_state.pwrStateResidencyTicks::UNDEFINED 125399520500                       # Cumulative time (in ticks) in various power states (Tick)
system.membus.transDist::ReadResp             3031352                       # Transaction distribution (Count)
system.membus.transDist::WritebackDirty         64110                       # Transaction distribution (Count)
system.membus.transDist::WritebackClean        243703                       # Transaction distribution (Count)
system.membus.transDist::CleanEvict           2735180                       # Transaction distribution (Count)
system.membus.transDist::ReadExReq              10384                       # Transaction distribution (Count)
system.membus.transDist::ReadExResp             10384                       # Transaction distribution (Count)
system.membus.transDist::ReadCleanReq          244204                       # Transaction distribution (Count)
system.membus.transDist::ReadSharedReq        2787149                       # Transaction distribution (Count)
system.membus.transDist::InvalidateReq           2269                       # Transaction distribution (Count)
system.membus.pktCount_system.cpu.icache.mem_side_port::system.mem_ctrls.port       732110                       # Packet count per connected requestor and responder (Count)
system.membus.pktCount_system.cpu.dcache.mem_side_port::system.mem_ctrls.port      8396625                       # Packet count per connected requestor and responder (Count)
system.membus.pktCount::total                 9128735                       # Packet count per connected requestor and responder (Count)
system.membus.pktSize_system.cpu.icache.mem_side_port::system.mem_ctrls.port     31225984                       # Cumulative packet size per connected requestor and responder (Byte)
system.membus.pktSize_system.cpu.dcache.mem_side_port::system.mem_ctrls.port    183145152                       # Cumulative packet size per connected requestor and responder (Byte)
system.membus.pktSize::total                214371136                       # Cumulative packet size per connected requestor and responder (Byte)
system.membus.snoops                                0                       # Total snoops (Count)
system.membus.snoopTraffic                          0                       # Total snoop traffic (Byte)
system.membus.snoopFanout::samples            3044006                       # Request fanout histogram (Count)
system.membus.snoopFanout::mean              0.000001                       # Request fanout histogram (Count)
system.membus.snoopFanout::stdev             0.000993                       # Request fanout histogram (Count)
system.membus.snoopFanout::underflows               0      0.00%      0.00% # Request fanout histogram (Count)
system.membus.snoopFanout::0                  3044003    100.00%    100.00% # Request fanout histogram (Count)
system.membus.snoopFanout::1                        3      0.00%    100.00% # Request fanout histogram (Count)
system.membus.snoopFanout::2                        0      0.00%    100.00% # Request fanout histogram (Count)
system.membus.snoopFanout::overflows                0      0.00%    100.00% # Request fanout histogram (Count)
system.membus.snoopFanout::min_value                0                       # Request fanout histogram (Count)
system.membus.snoopFanout::max_value                1                       # Request fanout histogram (Count)
system.membus.snoopFanout::total              3044006                       # Request fanout histogram (Count)
system.membus.power_state.pwrStateResidencyTicks::UNDEFINED 125399520500                       # Cumulative time (in ticks) in various power states (Tick)
system.membus.reqLayer0.occupancy          7465309500                       # Layer occupancy (ticks) (Tick)
system.membus.reqLayer0.utilization               0.1                       # Layer utilization (Ratio)
system.membus.respLayer1.occupancy         1221801000                       # Layer occupancy (ticks) (Tick)
system.membus.respLayer1.utilization              0.0                       # Layer utilization (Ratio)
system.membus.respLayer2.occupancy        14701886750                       # Layer occupancy (ticks) (Tick)
system.membus.respLayer2.utilization              0.1                       # Layer utilization (Ratio)
system.membus.snoop_filter.totRequests        6087002                       # Total number of requests made to the snoop filter. (Count)
system.membus.snoop_filter.hitSingleRequests      3042997                       # Number of requests hitting in the snoop filter with a single holder of the requested data. (Count)
system.membus.snoop_filter.hitMultiRequests            2                       # Number of requests hitting in the snoop filter with multiple (>1) holders of the requested data. (Count)
system.membus.snoop_filter.totSnoops                0                       # Total number of snoops made to the snoop filter. (Count)
system.membus.snoop_filter.hitSingleSnoops            0                       # Number of snoops hitting in the snoop filter with a single holder of the requested data. (Count)
system.membus.snoop_filter.hitMultiSnoops            0                       # Number of snoops hitting in the snoop filter with multiple (>1) holders of the requested data. (Count)
system.voltage_domain.voltage                       1                       # Voltage in Volts (Volt)
system.workload.inst.arm                            0                       # number of arm instructions executed (Count)
system.workload.inst.quiesce                        0                       # number of quiesce instructions executed (Count)

---------- End Simulation Statistics   ----------
