
---------- Begin Simulation Statistics ----------
simSeconds                                   0.013472                       # Number of seconds simulated (Second)
simTicks                                  13471560500                       # Number of ticks simulated (Tick)
finalTick                                 13471560500                       # Number of ticks from beginning of simulation (restored from checkpoints and never reset) (Tick)
simFreq                                  1000000000000                       # The number of ticks per simulated second ((Tick/Second))
hostSeconds                                     85.36                       # Real time elapsed on the host (Second)
hostTickRate                                157812330                       # The number of ticks simulated per host second (ticks/s) ((Tick/Second))
hostMemory                                     681000                       # Number of bytes of host memory used (Byte)
simInsts                                     51535191                       # Number of instructions simulated (Count)
simOps                                       56519573                       # Number of ops (including micro ops) simulated (Count)
hostInstRate                                   603708                       # Simulator instruction rate (inst/s) ((Count/Second))
hostOpRate                                     662097                       # Simulator op (including micro ops) rate (op/s) ((Count/Second))
system.clk_domain.clock                          1000                       # Clock period in ticks (Tick)
system.cpu.numCycles                         26943122                       # Number of cpu cycles simulated (Cycle)
system.cpu.numWorkItemsStarted                      0                       # Number of work items this cpu started (Count)
system.cpu.numWorkItemsCompleted                    0                       # Number of work items this cpu completed (Count)
system.cpu.instsAdded                        60232835                       # Number of instructions added to the IQ (excludes non-spec) (Count)
system.cpu.nonSpecInstsAdded                    72432                       # Number of non-speculative instructions added to the IQ (Count)
system.cpu.instsIssued                       59958533                       # Number of instructions issued (Count)
system.cpu.squashedInstsIssued                 135756                       # Number of squashed instructions issued (Count)
system.cpu.squashedInstsExamined              3785693                       # Number of squashed instructions iterated over during squash; mainly for profiling (Count)
system.cpu.squashedOperandsExamined           2789465                       # Number of squashed operands that are examined and possibly removed from graph (Count)
system.cpu.squashedNonSpecRemoved                 167                       # Number of squashed non-spec instructions that were removed (Count)
system.cpu.numIssuedDist::samples            25710442                       # Number of insts issued each cycle (Count)
system.cpu.numIssuedDist::mean               2.332069                       # Number of insts issued each cycle (Count)
system.cpu.numIssuedDist::stdev              2.168522                       # Number of insts issued each cycle (Count)
system.cpu.numIssuedDist::underflows                0      0.00%      0.00% # Number of insts issued each cycle (Count)
system.cpu.numIssuedDist::0                   7656000     29.78%     29.78% # Number of insts issued each cycle (Count)
system.cpu.numIssuedDist::1                   3051093     11.87%     41.64% # Number of insts issued each cycle (Count)
system.cpu.numIssuedDist::2                   4157601     16.17%     57.82% # Number of insts issued each cycle (Count)
system.cpu.numIssuedDist::3                   3611555     14.05%     71.86% # Number of insts issued each cycle (Count)
system.cpu.numIssuedDist::4                   2934179     11.41%     83.28% # Number of insts issued each cycle (Count)
system.cpu.numIssuedDist::5                   1499017      5.83%     89.11% # Number of insts issued each cycle (Count)
system.cpu.numIssuedDist::6                   1546003      6.01%     95.12% # Number of insts issued each cycle (Count)
system.cpu.numIssuedDist::7                    790198      3.07%     98.19% # Number of insts issued each cycle (Count)
system.cpu.numIssuedDist::8                    464796      1.81%    100.00% # Number of insts issued each cycle (Count)
system.cpu.numIssuedDist::overflows                 0      0.00%    100.00% # Number of insts issued each cycle (Count)
system.cpu.numIssuedDist::min_value                 0                       # Number of insts issued each cycle (Count)
system.cpu.numIssuedDist::max_value                 8                       # Number of insts issued each cycle (Count)
system.cpu.numIssuedDist::total              25710442                       # Number of insts issued each cycle (Count)
system.cpu.statFuBusy::No_OpClass                   0      0.00%      0.00% # attempts to use FU when none available (Count)
system.cpu.statFuBusy::IntAlu                  185578     15.86%     15.86% # attempts to use FU when none available (Count)
system.cpu.statFuBusy::IntMult                 153375     13.11%     28.97% # attempts to use FU when none available (Count)
system.cpu.statFuBusy::IntDiv                       0      0.00%     28.97% # attempts to use FU when none available (Count)
system.cpu.statFuBusy::FloatAdd                     0      0.00%     28.97% # attempts to use FU when none available (Count)
system.cpu.statFuBusy::FloatCmp                     0      0.00%     28.97% # attempts to use FU when none available (Count)
system.cpu.statFuBusy::FloatCvt                     0      0.00%     28.97% # attempts to use FU when none available (Count)
system.cpu.statFuBusy::FloatMult                    0      0.00%     28.97% # attempts to use FU when none available (Count)
system.cpu.statFuBusy::FloatMultAcc                 0      0.00%     28.97% # attempts to use FU when none available (Count)
system.cpu.statFuBusy::FloatDiv                     0      0.00%     28.97% # attempts to use FU when none available (Count)
system.cpu.statFuBusy::FloatMisc                    0      0.00%     28.97% # attempts to use FU when none available (Count)
system.cpu.statFuBusy::FloatSqrt                    0      0.00%     28.97% # attempts to use FU when none available (Count)
system.cpu.statFuBusy::SimdAdd                      0      0.00%     28.97% # attempts to use FU when none available (Count)
system.cpu.statFuBusy::SimdAddAcc                   0      0.00%     28.97% # attempts to use FU when none available (Count)
system.cpu.statFuBusy::SimdAlu                      1      0.00%     28.97% # attempts to use FU when none available (Count)
system.cpu.statFuBusy::SimdCmp                      4      0.00%     28.97% # attempts to use FU when none available (Count)
system.cpu.statFuBusy::SimdCvt                      0      0.00%     28.97% # attempts to use FU when none available (Count)
system.cpu.statFuBusy::SimdMisc                     0      0.00%     28.97% # attempts to use FU when none available (Count)
system.cpu.statFuBusy::SimdMult                     0      0.00%     28.97% # attempts to use FU when none available (Count)
system.cpu.statFuBusy::SimdMultAcc                  0      0.00%     28.97% # attempts to use FU when none available (Count)
system.cpu.statFuBusy::SimdShift                    0      0.00%     28.97% # attempts to use FU when none available (Count)
system.cpu.statFuBusy::SimdShiftAcc                 0      0.00%     28.97% # attempts to use FU when none available (Count)
system.cpu.statFuBusy::SimdDiv                      0      0.00%     28.97% # attempts to use FU when none available (Count)
system.cpu.statFuBusy::SimdSqrt                     0      0.00%     28.97% # attempts to use FU when none available (Count)
system.cpu.statFuBusy::SimdFloatAdd                 0      0.00%     28.97% # attempts to use FU when none available (Count)
system.cpu.statFuBusy::SimdFloatAlu                 0      0.00%     28.97% # attempts to use FU when none available (Count)
system.cpu.statFuBusy::SimdFloatCmp                 0      0.00%     28.97% # attempts to use FU when none available (Count)
system.cpu.statFuBusy::SimdFloatCvt                 0      0.00%     28.97% # attempts to use FU when none available (Count)
system.cpu.statFuBusy::SimdFloatDiv                 0      0.00%     28.97% # attempts to use FU when none available (Count)
system.cpu.statFuBusy::SimdFloatMisc                0      0.00%     28.97% # attempts to use FU when none available (Count)
system.cpu.statFuBusy::SimdFloatMult                0      0.00%     28.97% # attempts to use FU when none available (Count)
system.cpu.statFuBusy::SimdFloatMultAcc             0      0.00%     28.97% # attempts to use FU when none available (Count)
system.cpu.statFuBusy::SimdFloatSqrt                0      0.00%     28.97% # attempts to use FU when none available (Count)
system.cpu.statFuBusy::SimdReduceAdd                0      0.00%     28.97% # attempts to use FU when none available (Count)
system.cpu.statFuBusy::SimdReduceAlu                0      0.00%     28.97% # attempts to use FU when none available (Count)
system.cpu.statFuBusy::SimdReduceCmp                0      0.00%     28.97% # attempts to use FU when none available (Count)
system.cpu.statFuBusy::SimdFloatReduceAdd            0      0.00%     28.97% # attempts to use FU when none available (Count)
system.cpu.statFuBusy::SimdFloatReduceCmp            0      0.00%     28.97% # attempts to use FU when none available (Count)
system.cpu.statFuBusy::SimdAes                      0      0.00%     28.97% # attempts to use FU when none available (Count)
system.cpu.statFuBusy::SimdAesMix                   0      0.00%     28.97% # attempts to use FU when none available (Count)
system.cpu.statFuBusy::SimdSha1Hash                 0      0.00%     28.97% # attempts to use FU when none available (Count)
system.cpu.statFuBusy::SimdSha1Hash2                0      0.00%     28.97% # attempts to use FU when none available (Count)
system.cpu.statFuBusy::SimdSha256Hash               0      0.00%     28.97% # attempts to use FU when none available (Count)
system.cpu.statFuBusy::SimdSha256Hash2              0      0.00%     28.97% # attempts to use FU when none available (Count)
system.cpu.statFuBusy::SimdShaSigma2                0      0.00%     28.97% # attempts to use FU when none available (Count)
system.cpu.statFuBusy::SimdShaSigma3                0      0.00%     28.97% # attempts to use FU when none available (Count)
system.cpu.statFuBusy::SimdPredAlu                  0      0.00%     28.97% # attempts to use FU when none available (Count)
system.cpu.statFuBusy::MemRead                 444019     37.95%     66.92% # attempts to use FU when none available (Count)
system.cpu.statFuBusy::MemWrite                387024     33.08%    100.00% # attempts to use FU when none available (Count)
system.cpu.statFuBusy::FloatMemRead                 0      0.00%    100.00% # attempts to use FU when none available (Count)
system.cpu.statFuBusy::FloatMemWrite                0      0.00%    100.00% # attempts to use FU when none available (Count)
system.cpu.statFuBusy::IprAccess                    0      0.00%    100.00% # attempts to use FU when none available (Count)
system.cpu.statFuBusy::InstPrefetch                 0      0.00%    100.00% # attempts to use FU when none available (Count)
system.cpu.statIssuedInstType_0::No_OpClass        68894      0.11%      0.11% # Number of instructions issued per FU type, per thread (Count)
system.cpu.statIssuedInstType_0::IntAlu      38721929     64.58%     64.70% # Number of instructions issued per FU type, per thread (Count)
system.cpu.statIssuedInstType_0::IntMult       796808      1.33%     66.03% # Number of instructions issued per FU type, per thread (Count)
system.cpu.statIssuedInstType_0::IntDiv         88160      0.15%     66.17% # Number of instructions issued per FU type, per thread (Count)
system.cpu.statIssuedInstType_0::FloatAdd         6825      0.01%     66.18% # Number of instructions issued per FU type, per thread (Count)
system.cpu.statIssuedInstType_0::FloatCmp        32768      0.05%     66.24% # Number of instructions issued per FU type, per thread (Count)
system.cpu.statIssuedInstType_0::FloatCvt            0      0.00%     66.24% # Number of instructions issued per FU type, per thread (Count)
system.cpu.statIssuedInstType_0::FloatMult         5227      0.01%     66.25% # Number of instructions issued per FU type, per thread (Count)
system.cpu.statIssuedInstType_0::FloatMultAcc            0      0.00%     66.25% # Number of instructions issued per FU type, per thread (Count)
system.cpu.statIssuedInstType_0::FloatDiv            0      0.00%     66.25% # Number of instructions issued per FU type, per thread (Count)
system.cpu.statIssuedInstType_0::FloatMisc        55718      0.09%     66.34% # Number of instructions issued per FU type, per thread (Count)
system.cpu.statIssuedInstType_0::FloatSqrt            0      0.00%     66.34% # Number of instructions issued per FU type, per thread (Count)
system.cpu.statIssuedInstType_0::SimdAdd        65575      0.11%     66.45% # Number of instructions issued per FU type, per thread (Count)
system.cpu.statIssuedInstType_0::SimdAddAcc            0      0.00%     66.45% # Number of instructions issued per FU type, per thread (Count)
system.cpu.statIssuedInstType_0::SimdAlu       131136      0.22%     66.67% # Number of instructions issued per FU type, per thread (Count)
system.cpu.statIssuedInstType_0::SimdCmp       131128      0.22%     66.89% # Number of instructions issued per FU type, per thread (Count)
system.cpu.statIssuedInstType_0::SimdCvt            0      0.00%     66.89% # Number of instructions issued per FU type, per thread (Count)
system.cpu.statIssuedInstType_0::SimdMisc        98350      0.16%     67.05% # Number of instructions issued per FU type, per thread (Count)
system.cpu.statIssuedInstType_0::SimdMult            0      0.00%     67.05% # Number of instructions issued per FU type, per thread (Count)
system.cpu.statIssuedInstType_0::SimdMultAcc            0      0.00%     67.05% # Number of instructions issued per FU type, per thread (Count)
system.cpu.statIssuedInstType_0::SimdShift            0      0.00%     67.05% # Number of instructions issued per FU type, per thread (Count)
system.cpu.statIssuedInstType_0::SimdShiftAcc            0      0.00%     67.05% # Number of instructions issued per FU type, per thread (Count)
system.cpu.statIssuedInstType_0::SimdDiv            0      0.00%     67.05% # Number of instructions issued per FU type, per thread (Count)
system.cpu.statIssuedInstType_0::SimdSqrt            0      0.00%     67.05% # Number of instructions issued per FU type, per thread (Count)
system.cpu.statIssuedInstType_0::SimdFloatAdd            0      0.00%     67.05% # Number of instructions issued per FU type, per thread (Count)
system.cpu.statIssuedInstType_0::SimdFloatAlu            0      0.00%     67.05% # Number of instructions issued per FU type, per thread (Count)
system.cpu.statIssuedInstType_0::SimdFloatCmp            0      0.00%     67.05% # Number of instructions issued per FU type, per thread (Count)
system.cpu.statIssuedInstType_0::SimdFloatCvt            0      0.00%     67.05% # Number of instructions issued per FU type, per thread (Count)
system.cpu.statIssuedInstType_0::SimdFloatDiv            0      0.00%     67.05% # Number of instructions issued per FU type, per thread (Count)
system.cpu.statIssuedInstType_0::SimdFloatMisc            0      0.00%     67.05% # Number of instructions issued per FU type, per thread (Count)
system.cpu.statIssuedInstType_0::SimdFloatMult            0      0.00%     67.05% # Number of instructions issued per FU type, per thread (Count)
system.cpu.statIssuedInstType_0::SimdFloatMultAcc            0      0.00%     67.05% # Number of instructions issued per FU type, per thread (Count)
system.cpu.statIssuedInstType_0::SimdFloatSqrt            0      0.00%     67.05% # Number of instructions issued per FU type, per thread (Count)
system.cpu.statIssuedInstType_0::SimdReduceAdd            0      0.00%     67.05% # Number of instructions issued per FU type, per thread (Count)
system.cpu.statIssuedInstType_0::SimdReduceAlu            0      0.00%     67.05% # Number of instructions issued per FU type, per thread (Count)
system.cpu.statIssuedInstType_0::SimdReduceCmp            0      0.00%     67.05% # Number of instructions issued per FU type, per thread (Count)
system.cpu.statIssuedInstType_0::SimdFloatReduceAdd            0      0.00%     67.05% # Number of instructions issued per FU type, per thread (Count)
system.cpu.statIssuedInstType_0::SimdFloatReduceCmp            0      0.00%     67.05% # Number of instructions issued per FU type, per thread (Count)
system.cpu.statIssuedInstType_0::SimdAes            0      0.00%     67.05% # Number of instructions issued per FU type, per thread (Count)
system.cpu.statIssuedInstType_0::SimdAesMix            0      0.00%     67.05% # Number of instructions issued per FU type, per thread (Count)
system.cpu.statIssuedInstType_0::SimdSha1Hash            0      0.00%     67.05% # Number of instructions issued per FU type, per thread (Count)
system.cpu.statIssuedInstType_0::SimdSha1Hash2            0      0.00%     67.05% # Number of instructions issued per FU type, per thread (Count)
system.cpu.statIssuedInstType_0::SimdSha256Hash            0      0.00%     67.05% # Number of instructions issued per FU type, per thread (Count)
system.cpu.statIssuedInstType_0::SimdSha256Hash2            0      0.00%     67.05% # Number of instructions issued per FU type, per thread (Count)
system.cpu.statIssuedInstType_0::SimdShaSigma2            0      0.00%     67.05% # Number of instructions issued per FU type, per thread (Count)
system.cpu.statIssuedInstType_0::SimdShaSigma3            0      0.00%     67.05% # Number of instructions issued per FU type, per thread (Count)
system.cpu.statIssuedInstType_0::SimdPredAlu            0      0.00%     67.05% # Number of instructions issued per FU type, per thread (Count)
system.cpu.statIssuedInstType_0::MemRead     12621712     21.05%     88.10% # Number of instructions issued per FU type, per thread (Count)
system.cpu.statIssuedInstType_0::MemWrite      7134303     11.90%    100.00% # Number of instructions issued per FU type, per thread (Count)
system.cpu.statIssuedInstType_0::FloatMemRead            0      0.00%    100.00% # Number of instructions issued per FU type, per thread (Count)
system.cpu.statIssuedInstType_0::FloatMemWrite            0      0.00%    100.00% # Number of instructions issued per FU type, per thread (Count)
system.cpu.statIssuedInstType_0::IprAccess            0      0.00%    100.00% # Number of instructions issued per FU type, per thread (Count)
system.cpu.statIssuedInstType_0::InstPrefetch            0      0.00%    100.00% # Number of instructions issued per FU type, per thread (Count)
system.cpu.statIssuedInstType_0::total       59958533                       # Number of instructions issued per FU type, per thread (Count)
system.cpu.issueRate                         2.225374                       # Inst issue rate ((Count/Cycle))
system.cpu.fuBusy                             1170001                       # FU busy when requested (Count)
system.cpu.fuBusyRate                        0.019514                       # FU busy rate (busy events/executed inst) ((Count/Count))
system.cpu.intInstQueueReads                144381868                       # Number of integer instruction queue reads (Count)
system.cpu.intInstQueueWrites                62507222                       # Number of integer instruction queue writes (Count)
system.cpu.intInstQueueWakeupAccesses        57679233                       # Number of integer instruction queue wakeup accesses (Count)
system.cpu.fpInstQueueReads                         0                       # Number of floating instruction queue reads (Count)
system.cpu.fpInstQueueWrites                        0                       # Number of floating instruction queue writes (Count)
system.cpu.fpInstQueueWakeupAccesses                0                       # Number of floating instruction queue wakeup accesses (Count)
system.cpu.vecInstQueueReads                  2551397                       # Number of vector instruction queue reads (Count)
system.cpu.vecInstQueueWrites                 1605575                       # Number of vector instruction queue writes (Count)
system.cpu.vecInstQueueWakeupAccesses         1119541                       # Number of vector instruction queue wakeup accesses (Count)
system.cpu.intAluAccesses                    59809557                       # Number of integer alu accesses (Count)
system.cpu.fpAluAccesses                            0                       # Number of floating point alu accesses (Count)
system.cpu.vecAluAccesses                     1250083                       # Number of vector alu accesses (Count)
system.cpu.numInsts                          59587217                       # Number of executed instructions (Count)
system.cpu.numLoadInsts                      12541932                       # Number of load instructions executed (Count)
system.cpu.numSquashedInsts                    371316                       # Number of squashed instructions skipped in execute (Count)
system.cpu.numSwp                                   0                       # Number of swp insts executed (Count)
system.cpu.numNop                               44116                       # Number of nop insts executed (Count)
system.cpu.numRefs                           19576034                       # Number of memory reference insts executed (Count)
system.cpu.numBranches                        9356518                       # Number of branches executed (Count)
system.cpu.numStoreInsts                      7034102                       # Number of stores executed (Count)
system.cpu.numRate                           2.211593                       # Inst execution rate ((Count/Cycle))
system.cpu.timesIdled                           58610                       # Number of times that the entire CPU went into an idle state and unscheduled itself (Count)
system.cpu.idleCycles                         1232680                       # Total number of cycles that the CPU has spent unscheduled due to idling (Cycle)
system.cpu.committedInsts                    51535191                       # Number of Instructions Simulated (Count)
system.cpu.committedOps                      56519573                       # Number of Ops (including micro ops) Simulated (Count)
system.cpu.cpi                               0.522810                       # CPI: Cycles Per Instruction ((Cycle/Count))
system.cpu.totalCpi                          0.522810                       # CPI: Total CPI of All Threads ((Cycle/Count))
system.cpu.ipc                               1.912740                       # IPC: Instructions Per Cycle ((Count/Cycle))
system.cpu.totalIpc                          1.912740                       # IPC: Total IPC of All Threads ((Count/Cycle))
system.cpu.intRegfileReads                   71387629                       # Number of integer regfile reads (Count)
system.cpu.intRegfileWrites                  43894496                       # Number of integer regfile writes (Count)
system.cpu.vecRegfileReads                    1274465                       # number of vector regfile reads (Count)
system.cpu.vecRegfileWrites                    640144                       # number of vector regfile writes (Count)
system.cpu.ccRegfileReads                    16316184                       # number of cc regfile reads (Count)
system.cpu.ccRegfileWrites                   16282403                       # number of cc regfile writes (Count)
system.cpu.miscRegfileReads                 111951483                       # number of misc regfile reads (Count)
system.cpu.miscRegfileWrites                   133409                       # number of misc regfile writes (Count)
system.cpu.MemDepUnit__0.insertedLoads       12063586                       # Number of loads inserted to the mem dependence unit. (Count)
system.cpu.MemDepUnit__0.insertedStores       7473821                       # Number of stores inserted to the mem dependence unit. (Count)
system.cpu.MemDepUnit__0.conflictingLoads      1941627                       # Number of conflicting loads. (Count)
system.cpu.MemDepUnit__0.conflictingStores       595437                       # Number of conflicting stores. (Count)
system.cpu.MemDepUnit__1.insertedLoads              0                       # Number of loads inserted to the mem dependence unit. (Count)
system.cpu.MemDepUnit__1.insertedStores             0                       # Number of stores inserted to the mem dependence unit. (Count)
system.cpu.MemDepUnit__1.conflictingLoads            0                       # Number of conflicting loads. (Count)
system.cpu.MemDepUnit__1.conflictingStores            0                       # Number of conflicting stores. (Count)
system.cpu.MemDepUnit__2.insertedLoads              0                       # Number of loads inserted to the mem dependence unit. (Count)
system.cpu.MemDepUnit__2.insertedStores             0                       # Number of stores inserted to the mem dependence unit. (Count)
system.cpu.MemDepUnit__2.conflictingLoads            0                       # Number of conflicting loads. (Count)
system.cpu.MemDepUnit__2.conflictingStores            0                       # Number of conflicting stores. (Count)
system.cpu.MemDepUnit__3.insertedLoads              0                       # Number of loads inserted to the mem dependence unit. (Count)
system.cpu.MemDepUnit__3.insertedStores             0                       # Number of stores inserted to the mem dependence unit. (Count)
system.cpu.MemDepUnit__3.conflictingLoads            0                       # Number of conflicting loads. (Count)
system.cpu.MemDepUnit__3.conflictingStores            0                       # Number of conflicting stores. (Count)
system.cpu.branchPred.lookups                 9987364                       # Number of BP lookups (Count)
system.cpu.branchPred.condPredicted           6994681                       # Number of conditional branches predicted (Count)
system.cpu.branchPred.condIncorrect            159985                       # Number of conditional branches incorrect (Count)
system.cpu.branchPred.BTBLookups              5366930                       # Number of BTB lookups (Count)
system.cpu.branchPred.BTBHits                 5294759                       # Number of BTB hits (Count)
system.cpu.branchPred.BTBHitRatio            0.986553                       # BTB Hit Ratio (Ratio)
system.cpu.branchPred.RASUsed                  736096                       # Number of times the RAS was used to get a target. (Count)
system.cpu.branchPred.RASIncorrect                 27                       # Number of incorrect RAS predictions. (Count)
system.cpu.branchPred.indirectLookups          164823                       # Number of indirect predictor lookups. (Count)
system.cpu.branchPred.indirectHits             146325                       # Number of indirect target hits. (Count)
system.cpu.branchPred.indirectMisses            18498                       # Number of indirect misses. (Count)
system.cpu.branchPred.indirectMispredicted          199                       # Number of mispredicted indirect branches. (Count)
system.cpu.commit.commitSquashedInsts         3788859                       # The number of squashed insts skipped by commit (Count)
system.cpu.commit.commitNonSpecStalls           72265                       # The number of times commit has been forced to stall to communicate backwards (Count)
system.cpu.commit.branchMispredicts            120483                       # The number of times a branch was mispredicted (Count)
system.cpu.commit.numCommittedDist::samples     25167270                       # Number of insts commited each cycle (Count)
system.cpu.commit.numCommittedDist::mean     2.247384                       # Number of insts commited each cycle (Count)
system.cpu.commit.numCommittedDist::stdev     2.913128                       # Number of insts commited each cycle (Count)
system.cpu.commit.numCommittedDist::underflows            0      0.00%      0.00% # Number of insts commited each cycle (Count)
system.cpu.commit.numCommittedDist::0        10788442     42.87%     42.87% # Number of insts commited each cycle (Count)
system.cpu.commit.numCommittedDist::1         4526150     17.98%     60.85% # Number of insts commited each cycle (Count)
system.cpu.commit.numCommittedDist::2         2288712      9.09%     69.95% # Number of insts commited each cycle (Count)
system.cpu.commit.numCommittedDist::3         1086681      4.32%     74.26% # Number of insts commited each cycle (Count)
system.cpu.commit.numCommittedDist::4         1116024      4.43%     78.70% # Number of insts commited each cycle (Count)
system.cpu.commit.numCommittedDist::5          282861      1.12%     79.82% # Number of insts commited each cycle (Count)
system.cpu.commit.numCommittedDist::6          957250      3.80%     83.62% # Number of insts commited each cycle (Count)
system.cpu.commit.numCommittedDist::7          394200      1.57%     85.19% # Number of insts commited each cycle (Count)
system.cpu.commit.numCommittedDist::8         3726950     14.81%    100.00% # Number of insts commited each cycle (Count)
system.cpu.commit.numCommittedDist::overflows            0      0.00%    100.00% # Number of insts commited each cycle (Count)
system.cpu.commit.numCommittedDist::min_value            0                       # Number of insts commited each cycle (Count)
system.cpu.commit.numCommittedDist::max_value            8                       # Number of insts commited each cycle (Count)
system.cpu.commit.numCommittedDist::total     25167270                       # Number of insts commited each cycle (Count)
system.cpu.commit.instsCommitted             51576136                       # Number of instructions committed (Count)
system.cpu.commit.opsCommitted               56560518                       # Number of ops (including micro ops) committed (Count)
system.cpu.commit.memRefs                    18127817                       # Number of memory references committed (Count)
system.cpu.commit.loads                      11508632                       # Number of loads committed (Count)
system.cpu.commit.amos                          36102                       # Number of atomic instructions committed (Count)
system.cpu.commit.membars                       36112                       # Number of memory barriers committed (Count)
system.cpu.commit.branches                    9097280                       # Number of branches committed (Count)
system.cpu.commit.vectorInstructions           999677                       # Number of committed Vector instructions. (Count)
system.cpu.commit.floating                          0                       # Number of committed floating point instructions. (Count)
system.cpu.commit.integer                    50312130                       # Number of committed integer instructions. (Count)
system.cpu.commit.functionCalls                693015                       # Number of function calls committed. (Count)
system.cpu.commit.committedInstType_0::No_OpClass        68885      0.12%      0.12% # Class of committed instruction (Count)
system.cpu.commit.committedInstType_0::IntAlu     36954859     65.34%     65.46% # Class of committed instruction (Count)
system.cpu.commit.committedInstType_0::IntMult       796017      1.41%     66.87% # Class of committed instruction (Count)
system.cpu.commit.committedInstType_0::IntDiv        88024      0.16%     67.02% # Class of committed instruction (Count)
system.cpu.commit.committedInstType_0::FloatAdd         6825      0.01%     67.03% # Class of committed instruction (Count)
system.cpu.commit.committedInstType_0::FloatCmp        32768      0.06%     67.09% # Class of committed instruction (Count)
system.cpu.commit.committedInstType_0::FloatCvt            0      0.00%     67.09% # Class of committed instruction (Count)
system.cpu.commit.committedInstType_0::FloatMult         5187      0.01%     67.10% # Class of committed instruction (Count)
system.cpu.commit.committedInstType_0::FloatMultAcc            0      0.00%     67.10% # Class of committed instruction (Count)
system.cpu.commit.committedInstType_0::FloatDiv            0      0.00%     67.10% # Class of committed instruction (Count)
system.cpu.commit.committedInstType_0::FloatMisc        54066      0.10%     67.20% # Class of committed instruction (Count)
system.cpu.commit.committedInstType_0::FloatSqrt            0      0.00%     67.20% # Class of committed instruction (Count)
system.cpu.commit.committedInstType_0::SimdAdd        65556      0.12%     67.31% # Class of committed instruction (Count)
system.cpu.commit.committedInstType_0::SimdAddAcc            0      0.00%     67.31% # Class of committed instruction (Count)
system.cpu.commit.committedInstType_0::SimdAlu       131098      0.23%     67.54% # Class of committed instruction (Count)
system.cpu.commit.committedInstType_0::SimdCmp       131092      0.23%     67.78% # Class of committed instruction (Count)
system.cpu.commit.committedInstType_0::SimdCvt            0      0.00%     67.78% # Class of committed instruction (Count)
system.cpu.commit.committedInstType_0::SimdMisc        98324      0.17%     67.95% # Class of committed instruction (Count)
system.cpu.commit.committedInstType_0::SimdMult            0      0.00%     67.95% # Class of committed instruction (Count)
system.cpu.commit.committedInstType_0::SimdMultAcc            0      0.00%     67.95% # Class of committed instruction (Count)
system.cpu.commit.committedInstType_0::SimdShift            0      0.00%     67.95% # Class of committed instruction (Count)
system.cpu.commit.committedInstType_0::SimdShiftAcc            0      0.00%     67.95% # Class of committed instruction (Count)
system.cpu.commit.committedInstType_0::SimdDiv            0      0.00%     67.95% # Class of committed instruction (Count)
system.cpu.commit.committedInstType_0::SimdSqrt            0      0.00%     67.95% # Class of committed instruction (Count)
system.cpu.commit.committedInstType_0::SimdFloatAdd            0      0.00%     67.95% # Class of committed instruction (Count)
system.cpu.commit.committedInstType_0::SimdFloatAlu            0      0.00%     67.95% # Class of committed instruction (Count)
system.cpu.commit.committedInstType_0::SimdFloatCmp            0      0.00%     67.95% # Class of committed instruction (Count)
system.cpu.commit.committedInstType_0::SimdFloatCvt            0      0.00%     67.95% # Class of committed instruction (Count)
system.cpu.commit.committedInstType_0::SimdFloatDiv            0      0.00%     67.95% # Class of committed instruction (Count)
system.cpu.commit.committedInstType_0::SimdFloatMisc            0      0.00%     67.95% # Class of committed instruction (Count)
system.cpu.commit.committedInstType_0::SimdFloatMult            0      0.00%     67.95% # Class of committed instruction (Count)
system.cpu.commit.committedInstType_0::SimdFloatMultAcc            0      0.00%     67.95% # Class of committed instruction (Count)
system.cpu.commit.committedInstType_0::SimdFloatSqrt            0      0.00%     67.95% # Class of committed instruction (Count)
system.cpu.commit.committedInstType_0::SimdReduceAdd            0      0.00%     67.95% # Class of committed instruction (Count)
system.cpu.commit.committedInstType_0::SimdReduceAlu            0      0.00%     67.95% # Class of committed instruction (Count)
system.cpu.commit.committedInstType_0::SimdReduceCmp            0      0.00%     67.95% # Class of committed instruction (Count)
system.cpu.commit.committedInstType_0::SimdFloatReduceAdd            0      0.00%     67.95% # Class of committed instruction (Count)
system.cpu.commit.committedInstType_0::SimdFloatReduceCmp            0      0.00%     67.95% # Class of committed instruction (Count)
system.cpu.commit.committedInstType_0::SimdAes            0      0.00%     67.95% # Class of committed instruction (Count)
system.cpu.commit.committedInstType_0::SimdAesMix            0      0.00%     67.95% # Class of committed instruction (Count)
system.cpu.commit.committedInstType_0::SimdSha1Hash            0      0.00%     67.95% # Class of committed instruction (Count)
system.cpu.commit.committedInstType_0::SimdSha1Hash2            0      0.00%     67.95% # Class of committed instruction (Count)
system.cpu.commit.committedInstType_0::SimdSha256Hash            0      0.00%     67.95% # Class of committed instruction (Count)
system.cpu.commit.committedInstType_0::SimdSha256Hash2            0      0.00%     67.95% # Class of committed instruction (Count)
system.cpu.commit.committedInstType_0::SimdShaSigma2            0      0.00%     67.95% # Class of committed instruction (Count)
system.cpu.commit.committedInstType_0::SimdShaSigma3            0      0.00%     67.95% # Class of committed instruction (Count)
system.cpu.commit.committedInstType_0::SimdPredAlu            0      0.00%     67.95% # Class of committed instruction (Count)
system.cpu.commit.committedInstType_0::MemRead     11508632     20.35%     88.30% # Class of committed instruction (Count)
system.cpu.commit.committedInstType_0::MemWrite      6619185     11.70%    100.00% # Class of committed instruction (Count)
system.cpu.commit.committedInstType_0::FloatMemRead            0      0.00%    100.00% # Class of committed instruction (Count)
system.cpu.commit.committedInstType_0::FloatMemWrite            0      0.00%    100.00% # Class of committed instruction (Count)
system.cpu.commit.committedInstType_0::IprAccess            0      0.00%    100.00% # Class of committed instruction (Count)
system.cpu.commit.committedInstType_0::InstPrefetch            0      0.00%    100.00% # Class of committed instruction (Count)
system.cpu.commit.committedInstType_0::total     56560518                       # Class of committed instruction (Count)
system.cpu.commit.commitEligibleSamples       3726950                       # number cycles where commit BW limit reached (Cycle)
system.cpu.dcache.demandHits::cpu.data       15578872                       # number of demand (read+write) hits (Count)
system.cpu.dcache.demandHits::total          15578872                       # number of demand (read+write) hits (Count)
system.cpu.dcache.overallHits::cpu.data      15628998                       # number of overall hits (Count)
system.cpu.dcache.overallHits::total         15628998                       # number of overall hits (Count)
system.cpu.dcache.demandMisses::cpu.data       110078                       # number of demand (read+write) misses (Count)
system.cpu.dcache.demandMisses::total          110078                       # number of demand (read+write) misses (Count)
system.cpu.dcache.overallMisses::cpu.data       110082                       # number of overall misses (Count)
system.cpu.dcache.overallMisses::total         110082                       # number of overall misses (Count)
system.cpu.dcache.demandMissLatency::cpu.data   8010104129                       # number of demand (read+write) miss ticks (Tick)
system.cpu.dcache.demandMissLatency::total   8010104129                       # number of demand (read+write) miss ticks (Tick)
system.cpu.dcache.overallMissLatency::cpu.data   8010104129                       # number of overall miss ticks (Tick)
system.cpu.dcache.overallMissLatency::total   8010104129                       # number of overall miss ticks (Tick)
system.cpu.dcache.demandAccesses::cpu.data     15688950                       # number of demand (read+write) accesses (Count)
system.cpu.dcache.demandAccesses::total      15688950                       # number of demand (read+write) accesses (Count)
system.cpu.dcache.overallAccesses::cpu.data     15739080                       # number of overall (read+write) accesses (Count)
system.cpu.dcache.overallAccesses::total     15739080                       # number of overall (read+write) accesses (Count)
system.cpu.dcache.demandMissRate::cpu.data     0.007016                       # miss rate for demand accesses (Ratio)
system.cpu.dcache.demandMissRate::total      0.007016                       # miss rate for demand accesses (Ratio)
system.cpu.dcache.overallMissRate::cpu.data     0.006994                       # miss rate for overall accesses (Ratio)
system.cpu.dcache.overallMissRate::total     0.006994                       # miss rate for overall accesses (Ratio)
system.cpu.dcache.demandAvgMissLatency::cpu.data 72767.529652                       # average overall miss latency ((Cycle/Count))
system.cpu.dcache.demandAvgMissLatency::total 72767.529652                       # average overall miss latency ((Cycle/Count))
system.cpu.dcache.overallAvgMissLatency::cpu.data 72764.885531                       # average overall miss latency ((Cycle/Count))
system.cpu.dcache.overallAvgMissLatency::total 72764.885531                       # average overall miss latency ((Cycle/Count))
system.cpu.dcache.blockedCycles::no_mshrs       735887                       # number of cycles access was blocked (Cycle)
system.cpu.dcache.blockedCycles::no_targets            0                       # number of cycles access was blocked (Cycle)
system.cpu.dcache.blockedCauses::no_mshrs        17732                       # number of times access was blocked (Count)
system.cpu.dcache.blockedCauses::no_targets            0                       # number of times access was blocked (Count)
system.cpu.dcache.avgBlocked::no_mshrs      41.500508                       # average number of cycles each access was blocked ((Cycle/Count))
system.cpu.dcache.avgBlocked::no_targets          nan                       # average number of cycles each access was blocked ((Cycle/Count))
system.cpu.dcache.writebacks::writebacks        13998                       # number of writebacks (Count)
system.cpu.dcache.writebacks::total             13998                       # number of writebacks (Count)
system.cpu.dcache.demandMshrHits::cpu.data        84958                       # number of demand (read+write) MSHR hits (Count)
system.cpu.dcache.demandMshrHits::total         84958                       # number of demand (read+write) MSHR hits (Count)
system.cpu.dcache.overallMshrHits::cpu.data        84958                       # number of overall MSHR hits (Count)
system.cpu.dcache.overallMshrHits::total        84958                       # number of overall MSHR hits (Count)
system.cpu.dcache.demandMshrMisses::cpu.data        25120                       # number of demand (read+write) MSHR misses (Count)
system.cpu.dcache.demandMshrMisses::total        25120                       # number of demand (read+write) MSHR misses (Count)
system.cpu.dcache.overallMshrMisses::cpu.data        25124                       # number of overall MSHR misses (Count)
system.cpu.dcache.overallMshrMisses::total        25124                       # number of overall MSHR misses (Count)
system.cpu.dcache.demandMshrMissLatency::cpu.data   2010325833                       # number of demand (read+write) MSHR miss ticks (Tick)
system.cpu.dcache.demandMshrMissLatency::total   2010325833                       # number of demand (read+write) MSHR miss ticks (Tick)
system.cpu.dcache.overallMshrMissLatency::cpu.data   2010716333                       # number of overall MSHR miss ticks (Tick)
system.cpu.dcache.overallMshrMissLatency::total   2010716333                       # number of overall MSHR miss ticks (Tick)
system.cpu.dcache.demandMshrMissRate::cpu.data     0.001601                       # mshr miss ratio for demand accesses (Ratio)
system.cpu.dcache.demandMshrMissRate::total     0.001601                       # mshr miss ratio for demand accesses (Ratio)
system.cpu.dcache.overallMshrMissRate::cpu.data     0.001596                       # mshr miss ratio for overall accesses (Ratio)
system.cpu.dcache.overallMshrMissRate::total     0.001596                       # mshr miss ratio for overall accesses (Ratio)
system.cpu.dcache.demandAvgMshrMissLatency::cpu.data 80028.894626                       # average overall mshr miss latency ((Cycle/Count))
system.cpu.dcache.demandAvgMshrMissLatency::total 80028.894626                       # average overall mshr miss latency ((Cycle/Count))
system.cpu.dcache.overallAvgMshrMissLatency::cpu.data 80031.696107                       # average overall mshr miss latency ((Cycle/Count))
system.cpu.dcache.overallAvgMshrMissLatency::total 80031.696107                       # average overall mshr miss latency ((Cycle/Count))
system.cpu.dcache.replacements                  24103                       # number of replacements (Count)
system.cpu.dcache.LoadLockedReq.hits::cpu.data           38                       # number of LoadLockedReq hits (Count)
system.cpu.dcache.LoadLockedReq.hits::total           38                       # number of LoadLockedReq hits (Count)
system.cpu.dcache.LoadLockedReq.misses::cpu.data            5                       # number of LoadLockedReq misses (Count)
system.cpu.dcache.LoadLockedReq.misses::total            5                       # number of LoadLockedReq misses (Count)
system.cpu.dcache.LoadLockedReq.missLatency::cpu.data       340000                       # number of LoadLockedReq miss ticks (Tick)
system.cpu.dcache.LoadLockedReq.missLatency::total       340000                       # number of LoadLockedReq miss ticks (Tick)
system.cpu.dcache.LoadLockedReq.accesses::cpu.data           43                       # number of LoadLockedReq accesses(hits+misses) (Count)
system.cpu.dcache.LoadLockedReq.accesses::total           43                       # number of LoadLockedReq accesses(hits+misses) (Count)
system.cpu.dcache.LoadLockedReq.missRate::cpu.data     0.116279                       # miss rate for LoadLockedReq accesses (Ratio)
system.cpu.dcache.LoadLockedReq.missRate::total     0.116279                       # miss rate for LoadLockedReq accesses (Ratio)
system.cpu.dcache.LoadLockedReq.avgMissLatency::cpu.data        68000                       # average LoadLockedReq miss latency ((Tick/Count))
system.cpu.dcache.LoadLockedReq.avgMissLatency::total        68000                       # average LoadLockedReq miss latency ((Tick/Count))
system.cpu.dcache.LoadLockedReq.mshrHits::cpu.data            2                       # number of LoadLockedReq MSHR hits (Count)
system.cpu.dcache.LoadLockedReq.mshrHits::total            2                       # number of LoadLockedReq MSHR hits (Count)
system.cpu.dcache.LoadLockedReq.mshrMisses::cpu.data            3                       # number of LoadLockedReq MSHR misses (Count)
system.cpu.dcache.LoadLockedReq.mshrMisses::total            3                       # number of LoadLockedReq MSHR misses (Count)
system.cpu.dcache.LoadLockedReq.mshrMissLatency::cpu.data       269500                       # number of LoadLockedReq MSHR miss ticks (Tick)
system.cpu.dcache.LoadLockedReq.mshrMissLatency::total       269500                       # number of LoadLockedReq MSHR miss ticks (Tick)
system.cpu.dcache.LoadLockedReq.mshrMissRate::cpu.data     0.069767                       # mshr miss rate for LoadLockedReq accesses (Ratio)
system.cpu.dcache.LoadLockedReq.mshrMissRate::total     0.069767                       # mshr miss rate for LoadLockedReq accesses (Ratio)
system.cpu.dcache.LoadLockedReq.avgMshrMissLatency::cpu.data 89833.333333                       # average LoadLockedReq mshr miss latency ((Tick/Count))
system.cpu.dcache.LoadLockedReq.avgMshrMissLatency::total 89833.333333                       # average LoadLockedReq mshr miss latency ((Tick/Count))
system.cpu.dcache.ReadReq.hits::cpu.data      9062671                       # number of ReadReq hits (Count)
system.cpu.dcache.ReadReq.hits::total         9062671                       # number of ReadReq hits (Count)
system.cpu.dcache.ReadReq.misses::cpu.data        43200                       # number of ReadReq misses (Count)
system.cpu.dcache.ReadReq.misses::total         43200                       # number of ReadReq misses (Count)
system.cpu.dcache.ReadReq.missLatency::cpu.data   3440328000                       # number of ReadReq miss ticks (Tick)
system.cpu.dcache.ReadReq.missLatency::total   3440328000                       # number of ReadReq miss ticks (Tick)
system.cpu.dcache.ReadReq.accesses::cpu.data      9105871                       # number of ReadReq accesses(hits+misses) (Count)
system.cpu.dcache.ReadReq.accesses::total      9105871                       # number of ReadReq accesses(hits+misses) (Count)
system.cpu.dcache.ReadReq.missRate::cpu.data     0.004744                       # miss rate for ReadReq accesses (Ratio)
system.cpu.dcache.ReadReq.missRate::total     0.004744                       # miss rate for ReadReq accesses (Ratio)
system.cpu.dcache.ReadReq.avgMissLatency::cpu.data 79637.222222                       # average ReadReq miss latency ((Tick/Count))
system.cpu.dcache.ReadReq.avgMissLatency::total 79637.222222                       # average ReadReq miss latency ((Tick/Count))
system.cpu.dcache.ReadReq.mshrHits::cpu.data        29281                       # number of ReadReq MSHR hits (Count)
system.cpu.dcache.ReadReq.mshrHits::total        29281                       # number of ReadReq MSHR hits (Count)
system.cpu.dcache.ReadReq.mshrMisses::cpu.data        13919                       # number of ReadReq MSHR misses (Count)
system.cpu.dcache.ReadReq.mshrMisses::total        13919                       # number of ReadReq MSHR misses (Count)
system.cpu.dcache.ReadReq.mshrMissLatency::cpu.data   1178319502                       # number of ReadReq MSHR miss ticks (Tick)
system.cpu.dcache.ReadReq.mshrMissLatency::total   1178319502                       # number of ReadReq MSHR miss ticks (Tick)
system.cpu.dcache.ReadReq.mshrMissRate::cpu.data     0.001529                       # mshr miss rate for ReadReq accesses (Ratio)
system.cpu.dcache.ReadReq.mshrMissRate::total     0.001529                       # mshr miss rate for ReadReq accesses (Ratio)
system.cpu.dcache.ReadReq.avgMshrMissLatency::cpu.data 84655.471083                       # average ReadReq mshr miss latency ((Tick/Count))
system.cpu.dcache.ReadReq.avgMshrMissLatency::total 84655.471083                       # average ReadReq mshr miss latency ((Tick/Count))
system.cpu.dcache.SoftPFReq.hits::cpu.data        50126                       # number of SoftPFReq hits (Count)
system.cpu.dcache.SoftPFReq.hits::total         50126                       # number of SoftPFReq hits (Count)
system.cpu.dcache.SoftPFReq.misses::cpu.data            4                       # number of SoftPFReq misses (Count)
system.cpu.dcache.SoftPFReq.misses::total            4                       # number of SoftPFReq misses (Count)
system.cpu.dcache.SoftPFReq.accesses::cpu.data        50130                       # number of SoftPFReq accesses(hits+misses) (Count)
system.cpu.dcache.SoftPFReq.accesses::total        50130                       # number of SoftPFReq accesses(hits+misses) (Count)
system.cpu.dcache.SoftPFReq.missRate::cpu.data     0.000080                       # miss rate for SoftPFReq accesses (Ratio)
system.cpu.dcache.SoftPFReq.missRate::total     0.000080                       # miss rate for SoftPFReq accesses (Ratio)
system.cpu.dcache.SoftPFReq.mshrMisses::cpu.data            4                       # number of SoftPFReq MSHR misses (Count)
system.cpu.dcache.SoftPFReq.mshrMisses::total            4                       # number of SoftPFReq MSHR misses (Count)
system.cpu.dcache.SoftPFReq.mshrMissLatency::cpu.data       390500                       # number of SoftPFReq MSHR miss ticks (Tick)
system.cpu.dcache.SoftPFReq.mshrMissLatency::total       390500                       # number of SoftPFReq MSHR miss ticks (Tick)
system.cpu.dcache.SoftPFReq.mshrMissRate::cpu.data     0.000080                       # mshr miss rate for SoftPFReq accesses (Ratio)
system.cpu.dcache.SoftPFReq.mshrMissRate::total     0.000080                       # mshr miss rate for SoftPFReq accesses (Ratio)
system.cpu.dcache.SoftPFReq.avgMshrMissLatency::cpu.data        97625                       # average SoftPFReq mshr miss latency ((Tick/Count))
system.cpu.dcache.SoftPFReq.avgMshrMissLatency::total        97625                       # average SoftPFReq mshr miss latency ((Tick/Count))
system.cpu.dcache.StoreCondReq.hits::cpu.data           10                       # number of StoreCondReq hits (Count)
system.cpu.dcache.StoreCondReq.hits::total           10                       # number of StoreCondReq hits (Count)
system.cpu.dcache.StoreCondReq.accesses::cpu.data           10                       # number of StoreCondReq accesses(hits+misses) (Count)
system.cpu.dcache.StoreCondReq.accesses::total           10                       # number of StoreCondReq accesses(hits+misses) (Count)
system.cpu.dcache.SwapReq.hits::cpu.data        36101                       # number of SwapReq hits (Count)
system.cpu.dcache.SwapReq.hits::total           36101                       # number of SwapReq hits (Count)
system.cpu.dcache.SwapReq.misses::cpu.data            1                       # number of SwapReq misses (Count)
system.cpu.dcache.SwapReq.misses::total             1                       # number of SwapReq misses (Count)
system.cpu.dcache.SwapReq.missLatency::cpu.data        95000                       # number of SwapReq miss ticks (Tick)
system.cpu.dcache.SwapReq.missLatency::total        95000                       # number of SwapReq miss ticks (Tick)
system.cpu.dcache.SwapReq.accesses::cpu.data        36102                       # number of SwapReq accesses(hits+misses) (Count)
system.cpu.dcache.SwapReq.accesses::total        36102                       # number of SwapReq accesses(hits+misses) (Count)
system.cpu.dcache.SwapReq.missRate::cpu.data     0.000028                       # miss rate for SwapReq accesses (Ratio)
system.cpu.dcache.SwapReq.missRate::total     0.000028                       # miss rate for SwapReq accesses (Ratio)
system.cpu.dcache.SwapReq.avgMissLatency::cpu.data        95000                       # average SwapReq miss latency ((Tick/Count))
system.cpu.dcache.SwapReq.avgMissLatency::total        95000                       # average SwapReq miss latency ((Tick/Count))
system.cpu.dcache.SwapReq.mshrHits::cpu.data            1                       # number of SwapReq MSHR hits (Count)
system.cpu.dcache.SwapReq.mshrHits::total            1                       # number of SwapReq MSHR hits (Count)
system.cpu.dcache.WriteLineReq.misses::cpu.data         2054                       # number of WriteLineReq misses (Count)
system.cpu.dcache.WriteLineReq.misses::total         2054                       # number of WriteLineReq misses (Count)
system.cpu.dcache.WriteLineReq.missLatency::cpu.data     35105326                       # number of WriteLineReq miss ticks (Tick)
system.cpu.dcache.WriteLineReq.missLatency::total     35105326                       # number of WriteLineReq miss ticks (Tick)
system.cpu.dcache.WriteLineReq.accesses::cpu.data         2054                       # number of WriteLineReq accesses(hits+misses) (Count)
system.cpu.dcache.WriteLineReq.accesses::total         2054                       # number of WriteLineReq accesses(hits+misses) (Count)
system.cpu.dcache.WriteLineReq.missRate::cpu.data            1                       # miss rate for WriteLineReq accesses (Ratio)
system.cpu.dcache.WriteLineReq.missRate::total            1                       # miss rate for WriteLineReq accesses (Ratio)
system.cpu.dcache.WriteLineReq.avgMissLatency::cpu.data 17091.200584                       # average WriteLineReq miss latency ((Tick/Count))
system.cpu.dcache.WriteLineReq.avgMissLatency::total 17091.200584                       # average WriteLineReq miss latency ((Tick/Count))
system.cpu.dcache.WriteLineReq.mshrMisses::cpu.data         2054                       # number of WriteLineReq MSHR misses (Count)
system.cpu.dcache.WriteLineReq.mshrMisses::total         2054                       # number of WriteLineReq MSHR misses (Count)
system.cpu.dcache.WriteLineReq.mshrMissLatency::cpu.data     33051326                       # number of WriteLineReq MSHR miss ticks (Tick)
system.cpu.dcache.WriteLineReq.mshrMissLatency::total     33051326                       # number of WriteLineReq MSHR miss ticks (Tick)
system.cpu.dcache.WriteLineReq.mshrMissRate::cpu.data            1                       # mshr miss rate for WriteLineReq accesses (Ratio)
system.cpu.dcache.WriteLineReq.mshrMissRate::total            1                       # mshr miss rate for WriteLineReq accesses (Ratio)
system.cpu.dcache.WriteLineReq.avgMshrMissLatency::cpu.data 16091.200584                       # average WriteLineReq mshr miss latency ((Tick/Count))
system.cpu.dcache.WriteLineReq.avgMshrMissLatency::total 16091.200584                       # average WriteLineReq mshr miss latency ((Tick/Count))
system.cpu.dcache.WriteReq.hits::cpu.data      6516201                       # number of WriteReq hits (Count)
system.cpu.dcache.WriteReq.hits::total        6516201                       # number of WriteReq hits (Count)
system.cpu.dcache.WriteReq.misses::cpu.data        64824                       # number of WriteReq misses (Count)
system.cpu.dcache.WriteReq.misses::total        64824                       # number of WriteReq misses (Count)
system.cpu.dcache.WriteReq.missLatency::cpu.data   4534670803                       # number of WriteReq miss ticks (Tick)
system.cpu.dcache.WriteReq.missLatency::total   4534670803                       # number of WriteReq miss ticks (Tick)
system.cpu.dcache.WriteReq.accesses::cpu.data      6581025                       # number of WriteReq accesses(hits+misses) (Count)
system.cpu.dcache.WriteReq.accesses::total      6581025                       # number of WriteReq accesses(hits+misses) (Count)
system.cpu.dcache.WriteReq.missRate::cpu.data     0.009850                       # miss rate for WriteReq accesses (Ratio)
system.cpu.dcache.WriteReq.missRate::total     0.009850                       # miss rate for WriteReq accesses (Ratio)
system.cpu.dcache.WriteReq.avgMissLatency::cpu.data 69953.578968                       # average WriteReq miss latency ((Tick/Count))
system.cpu.dcache.WriteReq.avgMissLatency::total 69953.578968                       # average WriteReq miss latency ((Tick/Count))
system.cpu.dcache.WriteReq.mshrHits::cpu.data        55677                       # number of WriteReq MSHR hits (Count)
system.cpu.dcache.WriteReq.mshrHits::total        55677                       # number of WriteReq MSHR hits (Count)
system.cpu.dcache.WriteReq.mshrMisses::cpu.data         9147                       # number of WriteReq MSHR misses (Count)
system.cpu.dcache.WriteReq.mshrMisses::total         9147                       # number of WriteReq MSHR misses (Count)
system.cpu.dcache.WriteReq.mshrMissLatency::cpu.data    798955005                       # number of WriteReq MSHR miss ticks (Tick)
system.cpu.dcache.WriteReq.mshrMissLatency::total    798955005                       # number of WriteReq MSHR miss ticks (Tick)
system.cpu.dcache.WriteReq.mshrMissRate::cpu.data     0.001390                       # mshr miss rate for WriteReq accesses (Ratio)
system.cpu.dcache.WriteReq.mshrMissRate::total     0.001390                       # mshr miss rate for WriteReq accesses (Ratio)
system.cpu.dcache.WriteReq.avgMshrMissLatency::cpu.data 87346.124959                       # average WriteReq mshr miss latency ((Tick/Count))
system.cpu.dcache.WriteReq.avgMshrMissLatency::total 87346.124959                       # average WriteReq mshr miss latency ((Tick/Count))
system.cpu.dcache.power_state.pwrStateResidencyTicks::UNDEFINED  13471560500                       # Cumulative time (in ticks) in various power states (Tick)
system.cpu.dcache.tags.tagsInUse          1020.834373                       # Average ticks per tags in use ((Tick/Count))
system.cpu.dcache.tags.totalRefs             15690274                       # Total number of references to valid blocks. (Count)
system.cpu.dcache.tags.sampledRefs              25127                       # Sample count of references to valid blocks. (Count)
system.cpu.dcache.tags.avgRefs             624.438811                       # Average number of references to valid blocks. ((Count/Count))
system.cpu.dcache.tags.warmupTick              145000                       # The tick when the warmup percentage was hit. (Tick)
system.cpu.dcache.tags.occupancies::cpu.data  1020.834373                       # Average occupied blocks per tick, per requestor ((Count/Tick))
system.cpu.dcache.tags.avgOccs::cpu.data     0.996909                       # Average percentage of cache occupancy ((Ratio/Tick))
system.cpu.dcache.tags.avgOccs::total        0.996909                       # Average percentage of cache occupancy ((Ratio/Tick))
system.cpu.dcache.tags.occupanciesTaskId::1024         1024                       # Occupied blocks per task id (Count)
system.cpu.dcache.tags.ageTaskId_1024::0           76                       # Occupied blocks per task id, per block age (Count)
system.cpu.dcache.tags.ageTaskId_1024::1           16                       # Occupied blocks per task id, per block age (Count)
system.cpu.dcache.tags.ageTaskId_1024::2          202                       # Occupied blocks per task id, per block age (Count)
system.cpu.dcache.tags.ageTaskId_1024::3          729                       # Occupied blocks per task id, per block age (Count)
system.cpu.dcache.tags.ageTaskId_1024::4            1                       # Occupied blocks per task id, per block age (Count)
system.cpu.dcache.tags.ratioOccsTaskId::1024            1                       # Ratio of occupied blocks and all blocks, per task id (Ratio)
system.cpu.dcache.tags.tagAccesses           31575597                       # Number of tag accesses (Count)
system.cpu.dcache.tags.dataAccesses          31575597                       # Number of data accesses (Count)
system.cpu.dcache.tags.power_state.pwrStateResidencyTicks::UNDEFINED  13471560500                       # Cumulative time (in ticks) in various power states (Tick)
system.cpu.decode.idleCycles                  8869309                       # Number of cycles decode is idle (Cycle)
system.cpu.decode.blockedCycles               5340097                       # Number of cycles decode is blocked (Cycle)
system.cpu.decode.runCycles                  10496588                       # Number of cycles decode is running (Cycle)
system.cpu.decode.unblockCycles                862099                       # Number of cycles decode is unblocking (Cycle)
system.cpu.decode.squashCycles                 142349                       # Number of cycles decode is squashing (Cycle)
system.cpu.decode.branchResolved              5269222                       # Number of times decode resolved a branch (Count)
system.cpu.decode.branchMispred                 39510                       # Number of times decode detected a branch misprediction (Count)
system.cpu.decode.decodedInsts               61691523                       # Number of instructions handled by decode (Count)
system.cpu.decode.squashedInsts                 38416                       # Number of squashed instructions handled by decode (Count)
system.cpu.fetch.icacheStallCycles           10140893                       # Number of cycles fetch is stalled on an Icache miss (Cycle)
system.cpu.fetch.insts                       56741397                       # Number of instructions fetch has processed (Count)
system.cpu.fetch.branches                     9987364                       # Number of branches that fetch encountered (Count)
system.cpu.fetch.predictedBranches            6177180                       # Number of branches that fetch has predicted taken (Count)
system.cpu.fetch.cycles                      15387583                       # Number of cycles fetch has run and was not squashing or blocked (Cycle)
system.cpu.fetch.squashCycles                  363702                       # Number of cycles fetch has spent squashing (Cycle)
system.cpu.fetch.miscStallCycles                    8                       # Number of cycles fetch has spent waiting on interrupts, or bad addresses, or out of MSHRs (Cycle)
system.cpu.fetch.icacheWaitRetryStallCycles          107                       # Number of stall cycles due to full MSHR (Cycle)
system.cpu.fetch.cacheLines                   8499502                       # Number of cache lines fetched (Count)
system.cpu.fetch.icacheSquashes                 74766                       # Number of outstanding Icache misses that were squashed (Count)
system.cpu.fetch.nisnDist::samples           25710442                       # Number of instructions fetched each cycle (Total) (Count)
system.cpu.fetch.nisnDist::mean              2.447522                       # Number of instructions fetched each cycle (Total) (Count)
system.cpu.fetch.nisnDist::stdev             3.076891                       # Number of instructions fetched each cycle (Total) (Count)
system.cpu.fetch.nisnDist::underflows               0      0.00%      0.00% # Number of instructions fetched each cycle (Total) (Count)
system.cpu.fetch.nisnDist::0                 13397043     52.11%     52.11% # Number of instructions fetched each cycle (Total) (Count)
system.cpu.fetch.nisnDist::1                   897918      3.49%     55.60% # Number of instructions fetched each cycle (Total) (Count)
system.cpu.fetch.nisnDist::2                  1909793      7.43%     63.03% # Number of instructions fetched each cycle (Total) (Count)
system.cpu.fetch.nisnDist::3                  1019226      3.96%     66.99% # Number of instructions fetched each cycle (Total) (Count)
system.cpu.fetch.nisnDist::4                  1579456      6.14%     73.14% # Number of instructions fetched each cycle (Total) (Count)
system.cpu.fetch.nisnDist::5                   963239      3.75%     76.88% # Number of instructions fetched each cycle (Total) (Count)
system.cpu.fetch.nisnDist::6                  1472862      5.73%     82.61% # Number of instructions fetched each cycle (Total) (Count)
system.cpu.fetch.nisnDist::7                   586740      2.28%     84.89% # Number of instructions fetched each cycle (Total) (Count)
system.cpu.fetch.nisnDist::8                  3884165     15.11%    100.00% # Number of instructions fetched each cycle (Total) (Count)
system.cpu.fetch.nisnDist::overflows                0      0.00%    100.00% # Number of instructions fetched each cycle (Total) (Count)
system.cpu.fetch.nisnDist::min_value                0                       # Number of instructions fetched each cycle (Total) (Count)
system.cpu.fetch.nisnDist::max_value                8                       # Number of instructions fetched each cycle (Total) (Count)
system.cpu.fetch.nisnDist::total             25710442                       # Number of instructions fetched each cycle (Total) (Count)
system.cpu.fetch.branchRate                  0.370683                       # Number of branch fetches per cycle (Ratio)
system.cpu.fetch.rate                        2.105970                       # Number of inst fetches per cycle ((Count/Cycle))
system.cpu.icache.demandHits::cpu.inst        8429531                       # number of demand (read+write) hits (Count)
system.cpu.icache.demandHits::total           8429531                       # number of demand (read+write) hits (Count)
system.cpu.icache.overallHits::cpu.inst       8429531                       # number of overall hits (Count)
system.cpu.icache.overallHits::total          8429531                       # number of overall hits (Count)
system.cpu.icache.demandMisses::cpu.inst        69971                       # number of demand (read+write) misses (Count)
system.cpu.icache.demandMisses::total           69971                       # number of demand (read+write) misses (Count)
system.cpu.icache.overallMisses::cpu.inst        69971                       # number of overall misses (Count)
system.cpu.icache.overallMisses::total          69971                       # number of overall misses (Count)
system.cpu.icache.demandMissLatency::cpu.inst   1667260996                       # number of demand (read+write) miss ticks (Tick)
system.cpu.icache.demandMissLatency::total   1667260996                       # number of demand (read+write) miss ticks (Tick)
system.cpu.icache.overallMissLatency::cpu.inst   1667260996                       # number of overall miss ticks (Tick)
system.cpu.icache.overallMissLatency::total   1667260996                       # number of overall miss ticks (Tick)
system.cpu.icache.demandAccesses::cpu.inst      8499502                       # number of demand (read+write) accesses (Count)
system.cpu.icache.demandAccesses::total       8499502                       # number of demand (read+write) accesses (Count)
system.cpu.icache.overallAccesses::cpu.inst      8499502                       # number of overall (read+write) accesses (Count)
system.cpu.icache.overallAccesses::total      8499502                       # number of overall (read+write) accesses (Count)
system.cpu.icache.demandMissRate::cpu.inst     0.008232                       # miss rate for demand accesses (Ratio)
system.cpu.icache.demandMissRate::total      0.008232                       # miss rate for demand accesses (Ratio)
system.cpu.icache.overallMissRate::cpu.inst     0.008232                       # miss rate for overall accesses (Ratio)
system.cpu.icache.overallMissRate::total     0.008232                       # miss rate for overall accesses (Ratio)
system.cpu.icache.demandAvgMissLatency::cpu.inst 23827.885781                       # average overall miss latency ((Cycle/Count))
system.cpu.icache.demandAvgMissLatency::total 23827.885781                       # average overall miss latency ((Cycle/Count))
system.cpu.icache.overallAvgMissLatency::cpu.inst 23827.885781                       # average overall miss latency ((Cycle/Count))
system.cpu.icache.overallAvgMissLatency::total 23827.885781                       # average overall miss latency ((Cycle/Count))
system.cpu.icache.blockedCycles::no_mshrs         1328                       # number of cycles access was blocked (Cycle)
system.cpu.icache.blockedCycles::no_targets            0                       # number of cycles access was blocked (Cycle)
system.cpu.icache.blockedCauses::no_mshrs           21                       # number of times access was blocked (Count)
system.cpu.icache.blockedCauses::no_targets            0                       # number of times access was blocked (Count)
system.cpu.icache.avgBlocked::no_mshrs      63.238095                       # average number of cycles each access was blocked ((Cycle/Count))
system.cpu.icache.avgBlocked::no_targets          nan                       # average number of cycles each access was blocked ((Cycle/Count))
system.cpu.icache.writebacks::writebacks        64292                       # number of writebacks (Count)
system.cpu.icache.writebacks::total             64292                       # number of writebacks (Count)
system.cpu.icache.demandMshrHits::cpu.inst         5178                       # number of demand (read+write) MSHR hits (Count)
system.cpu.icache.demandMshrHits::total          5178                       # number of demand (read+write) MSHR hits (Count)
system.cpu.icache.overallMshrHits::cpu.inst         5178                       # number of overall MSHR hits (Count)
system.cpu.icache.overallMshrHits::total         5178                       # number of overall MSHR hits (Count)
system.cpu.icache.demandMshrMisses::cpu.inst        64793                       # number of demand (read+write) MSHR misses (Count)
system.cpu.icache.demandMshrMisses::total        64793                       # number of demand (read+write) MSHR misses (Count)
system.cpu.icache.overallMshrMisses::cpu.inst        64793                       # number of overall MSHR misses (Count)
system.cpu.icache.overallMshrMisses::total        64793                       # number of overall MSHR misses (Count)
system.cpu.icache.demandMshrMissLatency::cpu.inst   1515719498                       # number of demand (read+write) MSHR miss ticks (Tick)
system.cpu.icache.demandMshrMissLatency::total   1515719498                       # number of demand (read+write) MSHR miss ticks (Tick)
system.cpu.icache.overallMshrMissLatency::cpu.inst   1515719498                       # number of overall MSHR miss ticks (Tick)
system.cpu.icache.overallMshrMissLatency::total   1515719498                       # number of overall MSHR miss ticks (Tick)
system.cpu.icache.demandMshrMissRate::cpu.inst     0.007623                       # mshr miss ratio for demand accesses (Ratio)
system.cpu.icache.demandMshrMissRate::total     0.007623                       # mshr miss ratio for demand accesses (Ratio)
system.cpu.icache.overallMshrMissRate::cpu.inst     0.007623                       # mshr miss ratio for overall accesses (Ratio)
system.cpu.icache.overallMshrMissRate::total     0.007623                       # mshr miss ratio for overall accesses (Ratio)
system.cpu.icache.demandAvgMshrMissLatency::cpu.inst 23393.260044                       # average overall mshr miss latency ((Cycle/Count))
system.cpu.icache.demandAvgMshrMissLatency::total 23393.260044                       # average overall mshr miss latency ((Cycle/Count))
system.cpu.icache.overallAvgMshrMissLatency::cpu.inst 23393.260044                       # average overall mshr miss latency ((Cycle/Count))
system.cpu.icache.overallAvgMshrMissLatency::total 23393.260044                       # average overall mshr miss latency ((Cycle/Count))
system.cpu.icache.replacements                  64292                       # number of replacements (Count)
system.cpu.icache.ReadReq.hits::cpu.inst      8429531                       # number of ReadReq hits (Count)
system.cpu.icache.ReadReq.hits::total         8429531                       # number of ReadReq hits (Count)
system.cpu.icache.ReadReq.misses::cpu.inst        69971                       # number of ReadReq misses (Count)
system.cpu.icache.ReadReq.misses::total         69971                       # number of ReadReq misses (Count)
system.cpu.icache.ReadReq.missLatency::cpu.inst   1667260996                       # number of ReadReq miss ticks (Tick)
system.cpu.icache.ReadReq.missLatency::total   1667260996                       # number of ReadReq miss ticks (Tick)
system.cpu.icache.ReadReq.accesses::cpu.inst      8499502                       # number of ReadReq accesses(hits+misses) (Count)
system.cpu.icache.ReadReq.accesses::total      8499502                       # number of ReadReq accesses(hits+misses) (Count)
system.cpu.icache.ReadReq.missRate::cpu.inst     0.008232                       # miss rate for ReadReq accesses (Ratio)
system.cpu.icache.ReadReq.missRate::total     0.008232                       # miss rate for ReadReq accesses (Ratio)
system.cpu.icache.ReadReq.avgMissLatency::cpu.inst 23827.885781                       # average ReadReq miss latency ((Tick/Count))
system.cpu.icache.ReadReq.avgMissLatency::total 23827.885781                       # average ReadReq miss latency ((Tick/Count))
system.cpu.icache.ReadReq.mshrHits::cpu.inst         5178                       # number of ReadReq MSHR hits (Count)
system.cpu.icache.ReadReq.mshrHits::total         5178                       # number of ReadReq MSHR hits (Count)
system.cpu.icache.ReadReq.mshrMisses::cpu.inst        64793                       # number of ReadReq MSHR misses (Count)
system.cpu.icache.ReadReq.mshrMisses::total        64793                       # number of ReadReq MSHR misses (Count)
system.cpu.icache.ReadReq.mshrMissLatency::cpu.inst   1515719498                       # number of ReadReq MSHR miss ticks (Tick)
system.cpu.icache.ReadReq.mshrMissLatency::total   1515719498                       # number of ReadReq MSHR miss ticks (Tick)
system.cpu.icache.ReadReq.mshrMissRate::cpu.inst     0.007623                       # mshr miss rate for ReadReq accesses (Ratio)
system.cpu.icache.ReadReq.mshrMissRate::total     0.007623                       # mshr miss rate for ReadReq accesses (Ratio)
system.cpu.icache.ReadReq.avgMshrMissLatency::cpu.inst 23393.260044                       # average ReadReq mshr miss latency ((Tick/Count))
system.cpu.icache.ReadReq.avgMshrMissLatency::total 23393.260044                       # average ReadReq mshr miss latency ((Tick/Count))
system.cpu.icache.power_state.pwrStateResidencyTicks::UNDEFINED  13471560500                       # Cumulative time (in ticks) in various power states (Tick)
system.cpu.icache.tags.tagsInUse           496.261302                       # Average ticks per tags in use ((Tick/Count))
system.cpu.icache.tags.totalRefs              8494323                       # Total number of references to valid blocks. (Count)
system.cpu.icache.tags.sampledRefs              64792                       # Sample count of references to valid blocks. (Count)
system.cpu.icache.tags.avgRefs             131.101417                       # Average number of references to valid blocks. ((Count/Count))
system.cpu.icache.tags.warmupTick               77000                       # The tick when the warmup percentage was hit. (Tick)
system.cpu.icache.tags.occupancies::cpu.inst   496.261302                       # Average occupied blocks per tick, per requestor ((Count/Tick))
system.cpu.icache.tags.avgOccs::cpu.inst     0.969260                       # Average percentage of cache occupancy ((Ratio/Tick))
system.cpu.icache.tags.avgOccs::total        0.969260                       # Average percentage of cache occupancy ((Ratio/Tick))
system.cpu.icache.tags.occupanciesTaskId::1024          500                       # Occupied blocks per task id (Count)
system.cpu.icache.tags.ageTaskId_1024::0           97                       # Occupied blocks per task id, per block age (Count)
system.cpu.icache.tags.ageTaskId_1024::3          185                       # Occupied blocks per task id, per block age (Count)
system.cpu.icache.tags.ageTaskId_1024::4          218                       # Occupied blocks per task id, per block age (Count)
system.cpu.icache.tags.ratioOccsTaskId::1024     0.976562                       # Ratio of occupied blocks and all blocks, per task id (Ratio)
system.cpu.icache.tags.tagAccesses           17063796                       # Number of tag accesses (Count)
system.cpu.icache.tags.dataAccesses          17063796                       # Number of data accesses (Count)
system.cpu.icache.tags.power_state.pwrStateResidencyTicks::UNDEFINED  13471560500                       # Cumulative time (in ticks) in various power states (Tick)
system.cpu.iew.idleCycles                           0                       # Number of cycles IEW is idle (Cycle)
system.cpu.iew.squashCycles                    142349                       # Number of cycles IEW is squashing (Cycle)
system.cpu.iew.blockCycles                     667445                       # Number of cycles IEW is blocking (Cycle)
system.cpu.iew.unblockCycles                   651550                       # Number of cycles IEW is unblocking (Cycle)
[...]
system.mem_ctrls.dram.bwRead::cpu.inst      307810517                       # Total read bandwidth from this memory ((Byte/Second))
system.mem_ctrls.dram.bwRead::cpu.data      108758892                       # Total read bandwidth from this memory ((Byte/Second))
system.mem_ctrls.dram.bwRead::total         416569409                       # Total read bandwidth from this memory ((Byte/Second))
system.mem_ctrls.dram.bwInstRead::cpu.inst    307810517                       # Instruction read bandwidth from this memory ((Byte/Second))
system.mem_ctrls.dram.bwInstRead::total     307810517                       # Instruction read bandwidth from this memory ((Byte/Second))
system.mem_ctrls.dram.bwWrite::writebacks     66500982                       # Write bandwidth from this memory ((Byte/Second))
system.mem_ctrls.dram.bwWrite::total         66500982                       # Write bandwidth from this memory ((Byte/Second))
system.mem_ctrls.dram.bwTotal::writebacks     66500982                       # Total bandwidth to/from this memory ((Byte/Second))
system.mem_ctrls.dram.bwTotal::cpu.inst     307810517                       # Total bandwidth to/from this memory ((Byte/Second))
system.mem_ctrls.dram.bwTotal::cpu.data     108758892                       # Total bandwidth to/from this memory ((Byte/Second))
system.mem_ctrls.dram.bwTotal::total        483070391                       # Total bandwidth to/from this memory ((Byte/Second))
system.mem_ctrls.dram.readBursts                24688                       # Number of DRAM read bursts (Count)
system.mem_ctrls.dram.writeBursts               16106                       # Number of DRAM write bursts (Count)
system.mem_ctrls.dram.perBankRdBursts::0         1411                       # Per bank write bursts (Count)
system.mem_ctrls.dram.perBankRdBursts::1         1534                       # Per bank write bursts (Count)
system.mem_ctrls.dram.perBankRdBursts::2         1572                       # Per bank write bursts (Count)
system.mem_ctrls.dram.perBankRdBursts::3         1434                       # Per bank write bursts (Count)
system.mem_ctrls.dram.perBankRdBursts::4         1420                       # Per bank write bursts (Count)
system.mem_ctrls.dram.perBankRdBursts::5         2044                       # Per bank write bursts (Count)
system.mem_ctrls.dram.perBankRdBursts::6         1876                       # Per bank write bursts (Count)
system.mem_ctrls.dram.perBankRdBursts::7         1785                       # Per bank write bursts (Count)
system.mem_ctrls.dram.perBankRdBursts::8         1421                       # Per bank write bursts (Count)
system.mem_ctrls.dram.perBankRdBursts::9         1536                       # Per bank write bursts (Count)
system.mem_ctrls.dram.perBankRdBursts::10         1516                       # Per bank write bursts (Count)
system.mem_ctrls.dram.perBankRdBursts::11         1445                       # Per bank write bursts (Count)
system.mem_ctrls.dram.perBankRdBursts::12         1413                       # Per bank write bursts (Count)
system.mem_ctrls.dram.perBankRdBursts::13         1488                       # Per bank write bursts (Count)
system.mem_ctrls.dram.perBankRdBursts::14         1427                       # Per bank write bursts (Count)
system.mem_ctrls.dram.perBankRdBursts::15         1366                       # Per bank write bursts (Count)
system.mem_ctrls.dram.perBankWrBursts::0          880                       # Per bank write bursts (Count)
system.mem_ctrls.dram.perBankWrBursts::1          947                       # Per bank write bursts (Count)
system.mem_ctrls.dram.perBankWrBursts::2         1008                       # Per bank write bursts (Count)
system.mem_ctrls.dram.perBankWrBursts::3          954                       # Per bank write bursts (Count)
system.mem_ctrls.dram.perBankWrBursts::4          937                       # Per bank write bursts (Count)
system.mem_ctrls.dram.perBankWrBursts::5         1288                       # Per bank write bursts (Count)
system.mem_ctrls.dram.perBankWrBursts::6         1141                       # Per bank write bursts (Count)
system.mem_ctrls.dram.perBankWrBursts::7         1108                       # Per bank write bursts (Count)
system.mem_ctrls.dram.perBankWrBursts::8          889                       # Per bank write bursts (Count)
system.mem_ctrls.dram.perBankWrBursts::9         1139                       # Per bank write bursts (Count)
system.mem_ctrls.dram.perBankWrBursts::10          866                       # Per bank write bursts (Count)
system.mem_ctrls.dram.perBankWrBursts::11         1062                       # Per bank write bursts (Count)
system.mem_ctrls.dram.perBankWrBursts::12          849                       # Per bank write bursts (Count)
system.mem_ctrls.dram.perBankWrBursts::13         1309                       # Per bank write bursts (Count)
system.mem_ctrls.dram.perBankWrBursts::14          884                       # Per bank write bursts (Count)
system.mem_ctrls.dram.perBankWrBursts::15          845                       # Per bank write bursts (Count)
system.mem_ctrls.dram.totQLat               828999000                       # Total ticks spent queuing (Tick)
system.mem_ctrls.dram.totBusLat             123440000                       # Total ticks spent in databus transfers (Tick)
system.mem_ctrls.dram.totMemAccLat         1291899000                       # Total ticks spent from burst creation until serviced by the DRAM (Tick)
system.mem_ctrls.dram.avgQLat                33579.03                       # Average queueing delay per DRAM burst ((Tick/Count))
system.mem_ctrls.dram.avgBusLat               5000.00                       # Average bus latency per DRAM burst ((Tick/Count))
system.mem_ctrls.dram.avgMemAccLat           52329.03                       # Average memory access latency per DRAM burst ((Tick/Count))
system.mem_ctrls.dram.readRowHits               16341                       # Number of row buffer hits during reads (Count)
system.mem_ctrls.dram.writeRowHits              13689                       # Number of row buffer hits during writes (Count)
system.mem_ctrls.dram.readRowHitRate            66.19                       # Row buffer hit rate for reads (Ratio)
system.mem_ctrls.dram.writeRowHitRate           84.99                       # Row buffer hit rate for writes (Ratio)
system.mem_ctrls.dram.bytesPerActivate::samples        10758                       # Bytes accessed per row activation (Byte)
system.mem_ctrls.dram.bytesPerActivate::mean   242.650307                       # Bytes accessed per row activation (Byte)
system.mem_ctrls.dram.bytesPerActivate::gmean   169.693023                       # Bytes accessed per row activation (Byte)
system.mem_ctrls.dram.bytesPerActivate::stdev   237.038344                       # Bytes accessed per row activation (Byte)
system.mem_ctrls.dram.bytesPerActivate::0-127         3310     30.77%     30.77% # Bytes accessed per row activation (Byte)
system.mem_ctrls.dram.bytesPerActivate::128-255         3362     31.25%     62.02% # Bytes accessed per row activation (Byte)
system.mem_ctrls.dram.bytesPerActivate::256-383         2702     25.12%     87.14% # Bytes accessed per row activation (Byte)
system.mem_ctrls.dram.bytesPerActivate::384-511          412      3.83%     90.96% # Bytes accessed per row activation (Byte)
system.mem_ctrls.dram.bytesPerActivate::512-639          157      1.46%     92.42% # Bytes accessed per row activation (Byte)
system.mem_ctrls.dram.bytesPerActivate::640-767          101      0.94%     93.36% # Bytes accessed per row activation (Byte)
system.mem_ctrls.dram.bytesPerActivate::768-895           59      0.55%     93.91% # Bytes accessed per row activation (Byte)
system.mem_ctrls.dram.bytesPerActivate::896-1023           33      0.31%     94.22% # Bytes accessed per row activation (Byte)
system.mem_ctrls.dram.bytesPerActivate::1024-1151          622      5.78%    100.00% # Bytes accessed per row activation (Byte)
system.mem_ctrls.dram.bytesPerActivate::total        10758                       # Bytes accessed per row activation (Byte)
system.mem_ctrls.dram.bytesRead               1580032                       # Total bytes read (Byte)
system.mem_ctrls.dram.bytesWritten            1030784                       # Total bytes written (Byte)
system.mem_ctrls.dram.avgRdBW              117.286487                       # Average DRAM read bandwidth in MiBytes/s ((Byte/Second))
system.mem_ctrls.dram.avgWrBW               76.515560                       # Average DRAM write bandwidth in MiBytes/s ((Byte/Second))
system.mem_ctrls.dram.peakBW                 12800.00                       # Theoretical peak bandwidth in MiByte/s ((Byte/Second))
system.mem_ctrls.dram.busUtil                    1.51                       # Data bus utilization in percentage (Ratio)
system.mem_ctrls.dram.busUtilRead                0.92                       # Data bus utilization in percentage for reads (Ratio)
system.mem_ctrls.dram.busUtilWrite               0.60                       # Data bus utilization in percentage for writes (Ratio)
system.mem_ctrls.dram.pageHitRate               73.61                       # Row buffer hit rate, read and write combined (Ratio)
system.mem_ctrls.dram.power_state.pwrStateResidencyTicks::UNDEFINED  13471560500                       # Cumulative time (in ticks) in various power states (Tick)
system.mem_ctrls.dram.rank0.actEnergy        40812240                       # Energy for activate commands per rank (pJ) (Joule)
system.mem_ctrls.dram.rank0.preEnergy        21673245                       # Energy for precharge commands per rank (pJ) (Joule)
system.mem_ctrls.dram.rank0.readEnergy       93355500                       # Energy for read commands per rank (pJ) (Joule)
system.mem_ctrls.dram.rank0.writeEnergy      43132860                       # Energy for write commands per rank (pJ) (Joule)
system.mem_ctrls.dram.rank0.refreshEnergy 1063327200.000000                       # Energy for refresh commands per rank (pJ) (Joule)
system.mem_ctrls.dram.rank0.actBackEnergy   3176071920                       # Energy for active background per rank (pJ) (Joule)
system.mem_ctrls.dram.rank0.preBackEnergy   2498492640                       # Energy for precharge background per rank (pJ) (Joule)
system.mem_ctrls.dram.rank0.actPowerDownEnergy            0                       # Energy for active power-down per rank (pJ) (Joule)
system.mem_ctrls.dram.rank0.prePowerDownEnergy            0                       # Energy for precharge power-down per rank (pJ) (Joule)
system.mem_ctrls.dram.rank0.selfRefreshEnergy            0                       # Energy for self refresh per rank (pJ) (Joule)
system.mem_ctrls.dram.rank0.totalEnergy    6936865605                       # Total energy per rank (pJ) (Joule)
system.mem_ctrls.dram.rank0.averagePower   514.926656                       # Core power per rank (mW) (Watt)
system.mem_ctrls.dram.rank0.totalIdleTime            0                       # Total Idle time Per DRAM Rank (Tick)
system.mem_ctrls.dram.rank0.pwrStateTime::IDLE   6458396500                       # Time in different power states (Tick)
system.mem_ctrls.dram.rank0.pwrStateTime::REF    449800000                       # Time in different power states (Tick)
system.mem_ctrls.dram.rank0.pwrStateTime::SREF            0                       # Time in different power states (Tick)
system.mem_ctrls.dram.rank0.pwrStateTime::PRE_PDN            0                       # Time in different power states (Tick)
system.mem_ctrls.dram.rank0.pwrStateTime::ACT   6563364000                       # Time in different power states (Tick)
system.mem_ctrls.dram.rank0.pwrStateTime::ACT_PDN            0                       # Time in different power states (Tick)
system.mem_ctrls.dram.rank1.actEnergy        36035580                       # Energy for activate commands per rank (pJ) (Joule)
system.mem_ctrls.dram.rank1.preEnergy        19153365                       # Energy for precharge commands per rank (pJ) (Joule)
system.mem_ctrls.dram.rank1.readEnergy       82909680                       # Energy for read commands per rank (pJ) (Joule)
system.mem_ctrls.dram.rank1.writeEnergy      40940460                       # Energy for write commands per rank (pJ) (Joule)
system.mem_ctrls.dram.rank1.refreshEnergy 1063327200.000000                       # Energy for refresh commands per rank (pJ) (Joule)
system.mem_ctrls.dram.rank1.actBackEnergy   2826197370                       # Energy for active background per rank (pJ) (Joule)
system.mem_ctrls.dram.rank1.preBackEnergy   2793123840                       # Energy for precharge background per rank (pJ) (Joule)
system.mem_ctrls.dram.rank1.actPowerDownEnergy            0                       # Energy for active power-down per rank (pJ) (Joule)
system.mem_ctrls.dram.rank1.prePowerDownEnergy            0                       # Energy for precharge power-down per rank (pJ) (Joule)
system.mem_ctrls.dram.rank1.selfRefreshEnergy            0                       # Energy for self refresh per rank (pJ) (Joule)
system.mem_ctrls.dram.rank1.totalEnergy    6861687495                       # Total energy per rank (pJ) (Joule)
system.mem_ctrls.dram.rank1.averagePower   509.346151                       # Core power per rank (mW) (Watt)
system.mem_ctrls.dram.rank1.totalIdleTime            0                       # Total Idle time Per DRAM Rank (Tick)
system.mem_ctrls.dram.rank1.pwrStateTime::IDLE   7223141250                       # Time in different power states (Tick)
system.mem_ctrls.dram.rank1.pwrStateTime::REF    449800000                       # Time in different power states (Tick)
system.mem_ctrls.dram.rank1.pwrStateTime::SREF            0                       # Time in different power states (Tick)
system.mem_ctrls.dram.rank1.pwrStateTime::PRE_PDN            0                       # Time in different power states (Tick)
system.mem_ctrls.dram.rank1.pwrStateTime::ACT   5798619250                       # Time in different power states (Tick)
system.mem_ctrls.dram.rank1.pwrStateTime::ACT_PDN            0                       # Time in different power states (Tick)
system.mem_ctrls.power_state.pwrStateResidencyTicks::UNDEFINED  13471560500                       # Cumulative time (in ticks) in various power states (Tick)
system.membus.transDist::ReadResp               78718                       # Transaction distribution (Count)
system.membus.transDist::WritebackDirty         13998                       # Transaction distribution (Count)
system.membus.transDist::WritebackClean         64292                       # Transaction distribution (Count)
system.membus.transDist::CleanEvict             10105                       # Transaction distribution (Count)
system.membus.transDist::ReadExReq               8967                       # Transaction distribution (Count)
system.membus.transDist::ReadExResp              8967                       # Transaction distribution (Count)
system.membus.transDist::ReadCleanReq           64793                       # Transaction distribution (Count)
system.membus.transDist::ReadSharedReq          13926                       # Transaction distribution (Count)
system.membus.transDist::InvalidateReq           2234                       # Transaction distribution (Count)
system.membus.pktCount_system.cpu.icache.mem_side_port::system.mem_ctrls.port       193877                       # Packet count per connected requestor and responder (Count)
system.membus.pktCount_system.cpu.dcache.mem_side_port::system.mem_ctrls.port        72123                       # Packet count per connected requestor and responder (Count)
system.membus.pktCount::total                  266000                       # Packet count per connected requestor and responder (Count)
system.membus.pktSize_system.cpu.icache.mem_side_port::system.mem_ctrls.port      8261376                       # Cumulative packet size per connected requestor and responder (Byte)
system.membus.pktSize_system.cpu.dcache.mem_side_port::system.mem_ctrls.port      2361024                       # Cumulative packet size per connected requestor and responder (Byte)
system.membus.pktSize::total                 10622400                       # Cumulative packet size per connected requestor and responder (Byte)
system.membus.snoops                                0                       # Total snoops (Count)
system.membus.snoopTraffic                          0                       # Total snoop traffic (Byte)
system.membus.snoopFanout::samples              89920                       # Request fanout histogram (Count)
system.membus.snoopFanout::mean              0.000033                       # Request fanout histogram (Count)
system.membus.snoopFanout::stdev             0.005776                       # Request fanout histogram (Count)
system.membus.snoopFanout::underflows               0      0.00%      0.00% # Request fanout histogram (Count)
system.membus.snoopFanout::0                    89917    100.00%    100.00% # Request fanout histogram (Count)
system.membus.snoopFanout::1                        3      0.00%    100.00% # Request fanout histogram (Count)
system.membus.snoopFanout::2                        0      0.00%    100.00% # Request fanout histogram (Count)
system.membus.snoopFanout::overflows                0      0.00%    100.00% # Request fanout histogram (Count)
system.membus.snoopFanout::min_value                0                       # Request fanout histogram (Count)
system.membus.snoopFanout::max_value                1                       # Request fanout histogram (Count)
system.membus.snoopFanout::total                89920                       # Request fanout histogram (Count)
system.membus.power_state.pwrStateResidencyTicks::UNDEFINED  13471560500                       # Cumulative time (in ticks) in various power states (Tick)
system.membus.reqLayer0.occupancy           500252750                       # Layer occupancy (ticks) (Tick)
system.membus.reqLayer0.utilization               0.0                       # Layer utilization (Ratio)
system.membus.respLayer1.occupancy          324568500                       # Layer occupancy (ticks) (Tick)
system.membus.respLayer1.utilization              0.0                       # Layer utilization (Ratio)
system.membus.respLayer2.occupancy          119836250                       # Layer occupancy (ticks) (Tick)
system.membus.respLayer2.utilization              0.0                       # Layer utilization (Ratio)
system.membus.snoop_filter.totRequests         178316                       # Total number of requests made to the snoop filter. (Count)
system.membus.snoop_filter.hitSingleRequests        88397                       # Number of requests hitting in the snoop filter with a single holder of the requested data. (Count)
system.membus.snoop_filter.hitMultiRequests            2                       # Number of requests hitting in the snoop filter with multiple (>1) holders of the requested data. (Count)
system.membus.snoop_filter.totSnoops                0                       # Total number of snoops made to the snoop filter. (Count)
system.membus.snoop_filter.hitSingleSnoops            0                       # Number of snoops hitting in the snoop filter with a single holder of the requested data. (Count)
system.membus.snoop_filter.hitMultiSnoops            0                       # Number of snoops hitting in the snoop filter with multiple (>1) holders of the requested data. (Count)
system.voltage_domain.voltage                       1                       # Voltage in Volts (Volt)
system.workload.inst.arm                            0                       # number of arm instructions executed (Count)
system.workload.inst.quiesce                        0                       # number of quiesce instructions executed (Count)

---------- End Simulation Statistics   ----------
