
---------- Begin Simulation Statistics ----------
simSeconds                                   0.067296                       # Number of seconds simulated (Second)
simTicks                                  67295588500                       # Number of ticks simulated (Tick)
finalTick                                 67295588500                       # Number of ticks from beginning of simulation (restored from checkpoints and never reset) (Tick)
simFreq                                  1000000000000                       # The number of ticks per simulated second ((Tick/Second))
hostSeconds                                    369.16                       # Real time elapsed on the host (Second)
hostTickRate                                182296197                       # The number of ticks simulated per host second (ticks/s) ((Tick/Second))
hostMemory                                     681512                       # Number of bytes of host memory used (Byte)
simInsts                                    290350099                       # Number of instructions simulated (Count)
simOps                                      299981174                       # Number of ops (including micro ops) simulated (Count)
hostInstRate                                   786526                       # Simulator instruction rate (inst/s) ((Count/Second))
hostOpRate                                     812615                       # Simulator op (including micro ops) rate (op/s) ((Count/Second))
system.clk_domain.clock                          1000                       # Clock period in ticks (Tick)
system.cpu.numCycles                        134591178                       # Number of cpu cycles simulated (Cycle)
system.cpu.numWorkItemsStarted                      0                       # Number of work items this cpu started (Count)
system.cpu.numWorkItemsCompleted                    0                       # Number of work items this cpu completed (Count)
system.cpu.instsAdded                       311292310                       # Number of instructions added to the IQ (excludes non-spec) (Count)
system.cpu.nonSpecInstsAdded                    92125                       # Number of non-speculative instructions added to the IQ (Count)
system.cpu.instsIssued                      310240449                       # Number of instructions issued (Count)
system.cpu.squashedInstsIssued                 213963                       # Number of squashed instructions issued (Count)
system.cpu.squashedInstsExamined             11403260                       # Number of squashed instructions iterated over during squash; mainly for profiling (Count)
system.cpu.squashedOperandsExamined           7393047                       # Number of squashed operands that are examined and possibly removed from graph (Count)
system.cpu.squashedNonSpecRemoved                 180                       # Number of squashed non-spec instructions that were removed (Count)
system.cpu.numIssuedDist::samples           130020837                       # Number of insts issued each cycle (Count)
system.cpu.numIssuedDist::mean               2.386083                       # Number of insts issued each cycle (Count)
system.cpu.numIssuedDist::stdev              1.920161                       # Number of insts issued each cycle (Count)
system.cpu.numIssuedDist::underflows                0      0.00%      0.00% # Number of insts issued each cycle (Count)
system.cpu.numIssuedDist::0                  35284903     27.14%     27.14% # Number of insts issued each cycle (Count)
system.cpu.numIssuedDist::1                   7195455      5.53%     32.67% # Number of insts issued each cycle (Count)
system.cpu.numIssuedDist::2                  27679389     21.29%     53.96% # Number of insts issued each cycle (Count)
system.cpu.numIssuedDist::3                  20547148     15.80%     69.76% # Number of insts issued each cycle (Count)
system.cpu.numIssuedDist::4                  21570547     16.59%     86.35% # Number of insts issued each cycle (Count)
system.cpu.numIssuedDist::5                   9245990      7.11%     93.46% # Number of insts issued each cycle (Count)
system.cpu.numIssuedDist::6                   6699042      5.15%     98.62% # Number of insts issued each cycle (Count)
system.cpu.numIssuedDist::7                   1048522      0.81%     99.42% # Number of insts issued each cycle (Count)
system.cpu.numIssuedDist::8                    749841      0.58%    100.00% # Number of insts issued each cycle (Count)
system.cpu.numIssuedDist::overflows                 0      0.00%    100.00% # Number of insts issued each cycle (Count)
system.cpu.numIssuedDist::min_value                 0                       # Number of insts issued each cycle (Count)
system.cpu.numIssuedDist::max_value                 8                       # Number of insts issued each cycle (Count)
system.cpu.numIssuedDist::total             130020837                       # Number of insts issued each cycle (Count)
system.cpu.statFuBusy::No_OpClass                   0      0.00%      0.00% # attempts to use FU when none available (Count)
system.cpu.statFuBusy::IntAlu                  325071     16.90%     16.90% # attempts to use FU when none available (Count)
system.cpu.statFuBusy::IntMult                 249401     12.97%     29.87% # attempts to use FU when none available (Count)
system.cpu.statFuBusy::IntDiv                       0      0.00%     29.87% # attempts to use FU when none available (Count)
system.cpu.statFuBusy::FloatAdd                     0      0.00%     29.87% # attempts to use FU when none available (Count)
system.cpu.statFuBusy::FloatCmp                     0      0.00%     29.87% # attempts to use FU when none available (Count)
system.cpu.statFuBusy::FloatCvt                     0      0.00%     29.87% # attempts to use FU when none available (Count)
system.cpu.statFuBusy::FloatMult                    0      0.00%     29.87% # attempts to use FU when none available (Count)
system.cpu.statFuBusy::FloatMultAcc                 0      0.00%     29.87% # attempts to use FU when none available (Count)
system.cpu.statFuBusy::FloatDiv                     0      0.00%     29.87% # attempts to use FU when none available (Count)
system.cpu.statFuBusy::FloatMisc                    0      0.00%     29.87% # attempts to use FU when none available (Count)
system.cpu.statFuBusy::FloatSqrt                    0      0.00%     29.87% # attempts to use FU when none available (Count)
system.cpu.statFuBusy::SimdAdd                      0      0.00%     29.87% # attempts to use FU when none available (Count)
system.cpu.statFuBusy::SimdAddAcc                   0      0.00%     29.87% # attempts to use FU when none available (Count)
system.cpu.statFuBusy::SimdAlu                      1      0.00%     29.87% # attempts to use FU when none available (Count)
system.cpu.statFuBusy::SimdCmp                      3      0.00%     29.87% # attempts to use FU when none available (Count)
system.cpu.statFuBusy::SimdCvt                      0      0.00%     29.87% # attempts to use FU when none available (Count)
system.cpu.statFuBusy::SimdMisc                     0      0.00%     29.87% # attempts to use FU when none available (Count)
system.cpu.statFuBusy::SimdMult                     0      0.00%     29.87% # attempts to use FU when none available (Count)
system.cpu.statFuBusy::SimdMultAcc                  0      0.00%     29.87% # attempts to use FU when none available (Count)
system.cpu.statFuBusy::SimdShift                    0      0.00%     29.87% # attempts to use FU when none available (Count)
system.cpu.statFuBusy::SimdShiftAcc                 0      0.00%     29.87% # attempts to use FU when none available (Count)
system.cpu.statFuBusy::SimdDiv                      0      0.00%     29.87% # attempts to use FU when none available (Count)
system.cpu.statFuBusy::SimdSqrt                     0      0.00%     29.87% # attempts to use FU when none available (Count)
system.cpu.statFuBusy::SimdFloatAdd                 0      0.00%     29.87% # attempts to use FU when none available (Count)
system.cpu.statFuBusy::SimdFloatAlu                 0      0.00%     29.87% # attempts to use FU when none available (Count)
system.cpu.statFuBusy::SimdFloatCmp                 0      0.00%     29.87% # attempts to use FU when none available (Count)
system.cpu.statFuBusy::SimdFloatCvt                 0      0.00%     29.87% # attempts to use FU when none available (Count)
system.cpu.statFuBusy::SimdFloatDiv                 0      0.00%     29.87% # attempts to use FU when none available (Count)
system.cpu.statFuBusy::SimdFloatMisc                0      0.00%     29.87% # attempts to use FU when none available (Count)
system.cpu.statFuBusy::SimdFloatMult                0      0.00%     29.87% # attempts to use FU when none available (Count)
system.cpu.statFuBusy::SimdFloatMultAcc             0      0.00%     29.87% # attempts to use FU when none available (Count)
system.cpu.statFuBusy::SimdFloatSqrt                0      0.00%     29.87% # attempts to use FU when none available (Count)
system.cpu.statFuBusy::SimdReduceAdd                0      0.00%     29.87% # attempts to use FU when none available (Count)
system.cpu.statFuBusy::SimdReduceAlu                0      0.00%     29.87% # attempts to use FU when none available (Count)
system.cpu.statFuBusy::SimdReduceCmp                0      0.00%     29.87% # attempts to use FU when none available (Count)
system.cpu.statFuBusy::SimdFloatReduceAdd            0      0.00%     29.87% # attempts to use FU when none available (Count)
system.cpu.statFuBusy::SimdFloatReduceCmp            0      0.00%     29.87% # attempts to use FU when none available (Count)
system.cpu.statFuBusy::SimdAes                      0      0.00%     29.87% # attempts to use FU when none available (Count)
system.cpu.statFuBusy::SimdAesMix                   0      0.00%     29.87% # attempts to use FU when none available (Count)
system.cpu.statFuBusy::SimdSha1Hash                 0      0.00%     29.87% # attempts to use FU when none available (Count)
system.cpu.statFuBusy::SimdSha1Hash2                0      0.00%     29.87% # attempts to use FU when none available (Count)
system.cpu.statFuBusy::SimdSha256Hash               0      0.00%     29.87% # attempts to use FU when none available (Count)
system.cpu.statFuBusy::SimdSha256Hash2              0      0.00%     29.87% # attempts to use FU when none available (Count)
system.cpu.statFuBusy::SimdShaSigma2                0      0.00%     29.87% # attempts to use FU when none available (Count)
system.cpu.statFuBusy::SimdShaSigma3                0      0.00%     29.87% # attempts to use FU when none available (Count)
system.cpu.statFuBusy::SimdPredAlu                  0      0.00%     29.87% # attempts to use FU when none available (Count)
system.cpu.statFuBusy::MemRead                 797696     41.48%     71.35% # attempts to use FU when none available (Count)
system.cpu.statFuBusy::MemWrite                550864     28.65%    100.00% # attempts to use FU when none available (Count)
system.cpu.statFuBusy::FloatMemRead                 0      0.00%    100.00% # attempts to use FU when none available (Count)
system.cpu.statFuBusy::FloatMemWrite                0      0.00%    100.00% # attempts to use FU when none available (Count)
system.cpu.statFuBusy::IprAccess                    0      0.00%    100.00% # attempts to use FU when none available (Count)
system.cpu.statFuBusy::InstPrefetch                 0      0.00%    100.00% # attempts to use FU when none available (Count)
system.cpu.statIssuedInstType_0::No_OpClass        78724      0.03%      0.03% # Number of instructions issued per FU type, per thread (Count)
system.cpu.statIssuedInstType_0::IntAlu     191130045     61.61%     61.63% # Number of instructions issued per FU type, per thread (Count)
system.cpu.statIssuedInstType_0::IntMult      1687911      0.54%     62.18% # Number of instructions issued per FU type, per thread (Count)
system.cpu.statIssuedInstType_0::IntDiv        330428      0.11%     62.28% # Number of instructions issued per FU type, per thread (Count)
system.cpu.statIssuedInstType_0::FloatAdd        91138      0.03%     62.31% # Number of instructions issued per FU type, per thread (Count)
system.cpu.statIssuedInstType_0::FloatCmp        32768      0.01%     62.32% # Number of instructions issued per FU type, per thread (Count)
system.cpu.statIssuedInstType_0::FloatCvt            0      0.00%     62.32% # Number of instructions issued per FU type, per thread (Count)
system.cpu.statIssuedInstType_0::FloatMult        85439      0.03%     62.35% # Number of instructions issued per FU type, per thread (Count)
system.cpu.statIssuedInstType_0::FloatMultAcc            0      0.00%     62.35% # Number of instructions issued per FU type, per thread (Count)
system.cpu.statIssuedInstType_0::FloatDiv            0      0.00%     62.35% # Number of instructions issued per FU type, per thread (Count)
system.cpu.statIssuedInstType_0::FloatMisc        75438      0.02%     62.37% # Number of instructions issued per FU type, per thread (Count)
system.cpu.statIssuedInstType_0::FloatSqrt            0      0.00%     62.37% # Number of instructions issued per FU type, per thread (Count)
system.cpu.statIssuedInstType_0::SimdAdd        65571      0.02%     62.40% # Number of instructions issued per FU type, per thread (Count)
system.cpu.statIssuedInstType_0::SimdAddAcc            0      0.00%     62.40% # Number of instructions issued per FU type, per thread (Count)
system.cpu.statIssuedInstType_0::SimdAlu       131127      0.04%     62.44% # Number of instructions issued per FU type, per thread (Count)
system.cpu.statIssuedInstType_0::SimdCmp       131120      0.04%     62.48% # Number of instructions issued per FU type, per thread (Count)
system.cpu.statIssuedInstType_0::SimdCvt            0      0.00%     62.48% # Number of instructions issued per FU type, per thread (Count)
system.cpu.statIssuedInstType_0::SimdMisc        98341      0.03%     62.51% # Number of instructions issued per FU type, per thread (Count)
system.cpu.statIssuedInstType_0::SimdMult            0      0.00%     62.51% # Number of instructions issued per FU type, per thread (Count)
system.cpu.statIssuedInstType_0::SimdMultAcc            0      0.00%     62.51% # Number of instructions issued per FU type, per thread (Count)
system.cpu.statIssuedInstType_0::SimdShift            0      0.00%     62.51% # Number of instructions issued per FU type, per thread (Count)
system.cpu.statIssuedInstType_0::SimdShiftAcc            0      0.00%     62.51% # Number of instructions issued per FU type, per thread (Count)
system.cpu.statIssuedInstType_0::SimdDiv            0      0.00%     62.51% # Number of instructions issued per FU type, per thread (Count)
system.cpu.statIssuedInstType_0::SimdSqrt            0      0.00%     62.51% # Number of instructions issued per FU type, per thread (Count)
system.cpu.statIssuedInstType_0::SimdFloatAdd            0      0.00%     62.51% # Number of instructions issued per FU type, per thread (Count)
system.cpu.statIssuedInstType_0::SimdFloatAlu            0      0.00%     62.51% # Number of instructions issued per FU type, per thread (Count)
system.cpu.statIssuedInstType_0::SimdFloatCmp            0      0.00%     62.51% # Number of instructions issued per FU type, per thread (Count)
system.cpu.statIssuedInstType_0::SimdFloatCvt            0      0.00%     62.51% # Number of instructions issued per FU type, per thread (Count)
system.cpu.statIssuedInstType_0::SimdFloatDiv            0      0.00%     62.51% # Number of instructions issued per FU type, per thread (Count)
system.cpu.statIssuedInstType_0::SimdFloatMisc            0      0.00%     62.51% # Number of instructions issued per FU type, per thread (Count)
system.cpu.statIssuedInstType_0::SimdFloatMult            0      0.00%     62.51% # Number of instructions issued per FU type, per thread (Count)
system.cpu.statIssuedInstType_0::SimdFloatMultAcc            0      0.00%     62.51% # Number of instructions issued per FU type, per thread (Count)
system.cpu.statIssuedInstType_0::SimdFloatSqrt            0      0.00%     62.51% # Number of instructions issued per FU type, per thread (Count)
system.cpu.statIssuedInstType_0::SimdReduceAdd            0      0.00%     62.51% # Number of instructions issued per FU type, per thread (Count)
system.cpu.statIssuedInstType_0::SimdReduceAlu            0      0.00%     62.51% # Number of instructions issued per FU type, per thread (Count)
system.cpu.statIssuedInstType_0::SimdReduceCmp            0      0.00%     62.51% # Number of instructions issued per FU type, per thread (Count)
system.cpu.statIssuedInstType_0::SimdFloatReduceAdd            0      0.00%     62.51% # Number of instructions issued per FU type, per thread (Count)
system.cpu.statIssuedInstType_0::SimdFloatReduceCmp            0      0.00%     62.51% # Number of instructions issued per FU type, per thread (Count)
system.cpu.statIssuedInstType_0::SimdAes            0      0.00%     62.51% # Number of instructions issued per FU type, per thread (Count)
system.cpu.statIssuedInstType_0::SimdAesMix            0      0.00%     62.51% # Number of instructions issued per FU type, per thread (Count)
system.cpu.statIssuedInstType_0::SimdSha1Hash            0      0.00%     62.51% # Number of instructions issued per FU type, per thread (Count)
system.cpu.statIssuedInstType_0::SimdSha1Hash2            0      0.00%     62.51% # Number of instructions issued per FU type, per thread (Count)
system.cpu.statIssuedInstType_0::SimdSha256Hash            0      0.00%     62.51% # Number of instructions issued per FU type, per thread (Count)
system.cpu.statIssuedInstType_0::SimdSha256Hash2            0      0.00%     62.51% # Number of instructions issued per FU type, per thread (Count)
system.cpu.statIssuedInstType_0::SimdShaSigma2            0      0.00%     62.51% # Number of instructions issued per FU type, per thread (Count)
system.cpu.statIssuedInstType_0::SimdShaSigma3            0      0.00%     62.51% # Number of instructions issued per FU type, per thread (Count)
system.cpu.statIssuedInstType_0::SimdPredAlu            0      0.00%     62.51% # Number of instructions issued per FU type, per thread (Count)
system.cpu.statIssuedInstType_0::MemRead     93503899     30.14%     92.65% # Number of instructions issued per FU type, per thread (Count)
system.cpu.statIssuedInstType_0::MemWrite     22798500      7.35%    100.00% # Number of instructions issued per FU type, per thread (Count)
system.cpu.statIssuedInstType_0::FloatMemRead            0      0.00%    100.00% # Number of instructions issued per FU type, per thread (Count)
system.cpu.statIssuedInstType_0::FloatMemWrite            0      0.00%    100.00% # Number of instructions issued per FU type, per thread (Count)
system.cpu.statIssuedInstType_0::IprAccess            0      0.00%    100.00% # Number of instructions issued per FU type, per thread (Count)
system.cpu.statIssuedInstType_0::InstPrefetch            0      0.00%    100.00% # Number of instructions issued per FU type, per thread (Count)
system.cpu.statIssuedInstType_0::total      310240449                       # Number of instructions issued per FU type, per thread (Count)
system.cpu.issueRate                         2.305058                       # Inst issue rate ((Count/Cycle))
system.cpu.fuBusy                             1923036                       # FU busy when requested (Count)
system.cpu.fuBusyRate                        0.006199                       # FU busy rate (busy events/executed inst) ((Count/Count))
system.cpu.intInstQueueReads                748793357                       # Number of integer instruction queue reads (Count)
system.cpu.intInstQueueWrites               320490465                       # Number of integer instruction queue writes (Count)
system.cpu.intInstQueueWakeupAccesses       305289156                       # Number of integer instruction queue wakeup accesses (Count)
system.cpu.fpInstQueueReads                         0                       # Number of floating instruction queue reads (Count)
system.cpu.fpInstQueueWrites                        0                       # Number of floating instruction queue writes (Count)
system.cpu.fpInstQueueWakeupAccesses                0                       # Number of floating instruction queue wakeup accesses (Count)
system.cpu.vecInstQueueReads                  3845377                       # Number of vector instruction queue reads (Count)
system.cpu.vecInstQueueWrites                 2337782                       # Number of vector instruction queue writes (Count)
system.cpu.vecInstQueueWakeupAccesses         1716130                       # Number of vector instruction queue wakeup accesses (Count)
system.cpu.intAluAccesses                   310191727                       # Number of integer alu accesses (Count)
system.cpu.fpAluAccesses                            0                       # Number of floating point alu accesses (Count)
system.cpu.vecAluAccesses                     1893034                       # Number of vector alu accesses (Count)
system.cpu.numInsts                         309338738                       # Number of executed instructions (Count)
system.cpu.numLoadInsts                      93189913                       # Number of load instructions executed (Count)
system.cpu.numSquashedInsts                    901711                       # Number of squashed instructions skipped in execute (Count)
system.cpu.numSwp                                   0                       # Number of swp insts executed (Count)
system.cpu.numNop                               74564                       # Number of nop insts executed (Count)
system.cpu.numRefs                          115810791                       # Number of memory reference insts executed (Count)
system.cpu.numBranches                       47303302                       # Number of branches executed (Count)
system.cpu.numStoreInsts                     22620878                       # Number of stores executed (Count)
system.cpu.numRate                           2.298358                       # Inst execution rate ((Count/Cycle))
system.cpu.timesIdled                          224050                       # Number of times that the entire CPU went into an idle state and unscheduled itself (Count)
system.cpu.idleCycles                         4570341                       # Total number of cycles that the CPU has spent unscheduled due to idling (Cycle)
system.cpu.committedInsts                   290350099                       # Number of Instructions Simulated (Count)
system.cpu.committedOps                     299981174                       # Number of Ops (including micro ops) Simulated (Count)
system.cpu.cpi                               0.463548                       # CPI: Cycles Per Instruction ((Cycle/Count))
system.cpu.totalCpi                          0.463548                       # CPI: Total CPI of All Threads ((Cycle/Count))
system.cpu.ipc                               2.157274                       # IPC: Instructions Per Cycle ((Count/Cycle))
system.cpu.totalIpc                          2.157274                       # IPC: Total IPC of All Threads ((Count/Cycle))
system.cpu.intRegfileReads                  351979765                       # Number of integer regfile reads (Count)
system.cpu.intRegfileWrites                 240330528                       # Number of integer regfile writes (Count)
system.cpu.vecRegfileReads                    1779333                       # number of vector regfile reads (Count)
system.cpu.vecRegfileWrites                   1062027                       # number of vector regfile writes (Count)
system.cpu.ccRegfileReads                    90466761                       # number of cc regfile reads (Count)
system.cpu.ccRegfileWrites                   90062099                       # number of cc regfile writes (Count)
system.cpu.miscRegfileReads                 615060478                       # number of misc regfile reads (Count)
system.cpu.miscRegfileWrites                   316784                       # number of misc regfile writes (Count)
system.cpu.MemDepUnit__0.insertedLoads       92174778                       # Number of loads inserted to the mem dependence unit. (Count)
system.cpu.MemDepUnit__0.insertedStores      23415676                       # Number of stores inserted to the mem dependence unit. (Count)
system.cpu.MemDepUnit__0.conflictingLoads     14417872                       # Number of conflicting loads. (Count)
system.cpu.MemDepUnit__0.conflictingStores      1365886                       # Number of conflicting stores. (Count)
system.cpu.MemDepUnit__1.insertedLoads              0                       # Number of loads inserted to the mem dependence unit. (Count)
system.cpu.MemDepUnit__1.insertedStores             0                       # Number of stores inserted to the mem dependence unit. (Count)
system.cpu.MemDepUnit__1.conflictingLoads            0                       # Number of conflicting loads. (Count)
system.cpu.MemDepUnit__1.conflictingStores            0                       # Number of conflicting stores. (Count)
system.cpu.MemDepUnit__2.insertedLoads              0                       # Number of loads inserted to the mem dependence unit. (Count)
system.cpu.MemDepUnit__2.insertedStores             0                       # Number of stores inserted to the mem dependence unit. (Count)
system.cpu.MemDepUnit__2.conflictingLoads            0                       # Number of conflicting loads. (Count)
system.cpu.MemDepUnit__2.conflictingStores            0                       # Number of conflicting stores. (Count)
system.cpu.MemDepUnit__3.insertedLoads              0                       # Number of loads inserted to the mem dependence unit. (Count)
system.cpu.MemDepUnit__3.insertedStores             0                       # Number of stores inserted to the mem dependence unit. (Count)
system.cpu.MemDepUnit__3.conflictingLoads            0                       # Number of conflicting loads. (Count)
system.cpu.MemDepUnit__3.conflictingStores            0                       # Number of conflicting stores. (Count)
system.cpu.branchPred.lookups                49268284                       # Number of BP lookups (Count)
system.cpu.branchPred.condPredicted          33663213                       # Number of conditional branches predicted (Count)
system.cpu.branchPred.condIncorrect            408277                       # Number of conditional branches incorrect (Count)
system.cpu.branchPred.BTBLookups             30334904                       # Number of BTB lookups (Count)
system.cpu.branchPred.BTBHits                30171053                       # Number of BTB hits (Count)
system.cpu.branchPred.BTBHitRatio            0.994599                       # BTB Hit Ratio (Ratio)
system.cpu.branchPred.RASUsed                 1322029                       # Number of times the RAS was used to get a target. (Count)
system.cpu.branchPred.RASIncorrect                 26                       # Number of incorrect RAS predictions. (Count)
system.cpu.branchPred.indirectLookups          228661                       # Number of indirect predictor lookups. (Count)
system.cpu.branchPred.indirectHits             227731                       # Number of indirect target hits. (Count)
system.cpu.branchPred.indirectMisses              930                       # Number of indirect misses. (Count)
system.cpu.branchPred.indirectMispredicted          203                       # Number of mispredicted indirect branches. (Count)
system.cpu.commit.commitSquashedInsts        11413284                       # The number of squashed insts skipped by commit (Count)
system.cpu.commit.commitNonSpecStalls           91945                       # The number of times commit has been forced to stall to communicate backwards (Count)
system.cpu.commit.branchMispredicts            341666                       # The number of times a branch was mispredicted (Count)
system.cpu.commit.numCommittedDist::samples    128386365                       # Number of insts commited each cycle (Count)
system.cpu.commit.numCommittedDist::mean     2.337053                       # Number of insts commited each cycle (Count)
system.cpu.commit.numCommittedDist::stdev     2.922271                       # Number of insts commited each cycle (Count)
system.cpu.commit.numCommittedDist::underflows            0      0.00%      0.00% # Number of insts commited each cycle (Count)
system.cpu.commit.numCommittedDist::0        53267989     41.49%     41.49% # Number of insts commited each cycle (Count)
system.cpu.commit.numCommittedDist::1        27877044     21.71%     63.20% # Number of insts commited each cycle (Count)
system.cpu.commit.numCommittedDist::2         4512313      3.51%     66.72% # Number of insts commited each cycle (Count)
system.cpu.commit.numCommittedDist::3         2002429      1.56%     68.28% # Number of insts commited each cycle (Count)
system.cpu.commit.numCommittedDist::4        10834965      8.44%     76.72% # Number of insts commited each cycle (Count)
system.cpu.commit.numCommittedDist::5          946114      0.74%     77.45% # Number of insts commited each cycle (Count)
system.cpu.commit.numCommittedDist::6        10796294      8.41%     85.86% # Number of insts commited each cycle (Count)
system.cpu.commit.numCommittedDist::7          905151      0.71%     86.57% # Number of insts commited each cycle (Count)
system.cpu.commit.numCommittedDist::8        17244066     13.43%    100.00% # Number of insts commited each cycle (Count)
system.cpu.commit.numCommittedDist::overflows            0      0.00%    100.00% # Number of insts commited each cycle (Count)
system.cpu.commit.numCommittedDist::min_value            0                       # Number of insts commited each cycle (Count)
system.cpu.commit.numCommittedDist::max_value            8                       # Number of insts commited each cycle (Count)
system.cpu.commit.numCommittedDist::total    128386365                       # Number of insts commited each cycle (Count)
system.cpu.commit.instsCommitted            290414661                       # Number of instructions committed (Count)
system.cpu.commit.opsCommitted              300045736                       # Number of ops (including micro ops) committed (Count)
system.cpu.commit.memRefs                   111310701                       # Number of memory references committed (Count)
system.cpu.commit.loads                      89716636                       # Number of loads committed (Count)
system.cpu.commit.amos                          45934                       # Number of atomic instructions committed (Count)
system.cpu.commit.membars                       45944                       # Number of memory barriers committed (Count)
system.cpu.commit.branches                   46257763                       # Number of branches committed (Count)
system.cpu.commit.vectorInstructions          1579298                       # Number of committed Vector instructions. (Count)
system.cpu.commit.floating                          0                       # Number of committed floating point instructions. (Count)
system.cpu.commit.integer                   258917466                       # Number of committed integer instructions. (Count)
system.cpu.commit.functionCalls               1182634                       # Number of function calls committed. (Count)
system.cpu.commit.committedInstType_0::No_OpClass        78717      0.03%      0.03% # Class of committed instruction (Count)
system.cpu.commit.committedInstType_0::IntAlu    185937047     61.97%     62.00% # Class of committed instruction (Count)
system.cpu.commit.committedInstType_0::IntMult      1685530      0.56%     62.56% # Class of committed instruction (Count)
system.cpu.commit.committedInstType_0::IntDiv       330368      0.11%     62.67% # Class of committed instruction (Count)
system.cpu.commit.committedInstType_0::FloatAdd        91138      0.03%     62.70% # Class of committed instruction (Count)
system.cpu.commit.committedInstType_0::FloatCmp        32768      0.01%     62.71% # Class of committed instruction (Count)
system.cpu.commit.committedInstType_0::FloatCvt            0      0.00%     62.71% # Class of committed instruction (Count)
system.cpu.commit.committedInstType_0::FloatMult        84585      0.03%     62.74% # Class of committed instruction (Count)
system.cpu.commit.committedInstType_0::FloatMultAcc            0      0.00%     62.74% # Class of committed instruction (Count)
system.cpu.commit.committedInstType_0::FloatDiv            0      0.00%     62.74% # Class of committed instruction (Count)
system.cpu.commit.committedInstType_0::FloatMisc        68812      0.02%     62.76% # Class of committed instruction (Count)
system.cpu.commit.committedInstType_0::FloatSqrt            0      0.00%     62.76% # Class of committed instruction (Count)
system.cpu.commit.committedInstType_0::SimdAdd        65556      0.02%     62.78% # Class of committed instruction (Count)
system.cpu.commit.committedInstType_0::SimdAddAcc            0      0.00%     62.78% # Class of committed instruction (Count)
system.cpu.commit.committedInstType_0::SimdAlu       131098      0.04%     62.83% # Class of committed instruction (Count)
system.cpu.commit.committedInstType_0::SimdCmp       131092      0.04%     62.87% # Class of committed instruction (Count)
system.cpu.commit.committedInstType_0::SimdCvt            0      0.00%     62.87% # Class of committed instruction (Count)
system.cpu.commit.committedInstType_0::SimdMisc        98324      0.03%     62.90% # Class of committed instruction (Count)
system.cpu.commit.committedInstType_0::SimdMult            0      0.00%     62.90% # Class of committed instruction (Count)
system.cpu.commit.committedInstType_0::SimdMultAcc            0      0.00%     62.90% # Class of committed instruction (Count)
system.cpu.commit.committedInstType_0::SimdShift            0      0.00%     62.90% # Class of committed instruction (Count)
system.cpu.commit.committedInstType_0::SimdShiftAcc            0      0.00%     62.90% # Class of committed instruction (Count)
system.cpu.commit.committedInstType_0::SimdDiv            0      0.00%     62.90% # Class of committed instruction (Count)
system.cpu.commit.committedInstType_0::SimdSqrt            0      0.00%     62.90% # Class of committed instruction (Count)
system.cpu.commit.committedInstType_0::SimdFloatAdd            0      0.00%     62.90% # Class of committed instruction (Count)
system.cpu.commit.committedInstType_0::SimdFloatAlu            0      0.00%     62.90% # Class of committed instruction (Count)
system.cpu.commit.committedInstType_0::SimdFloatCmp            0      0.00%     62.90% # Class of committed instruction (Count)
system.cpu.commit.committedInstType_0::SimdFloatCvt            0      0.00%     62.90% # Class of committed instruction (Count)
system.cpu.commit.committedInstType_0::SimdFloatDiv            0      0.00%     62.90% # Class of committed instruction (Count)
system.cpu.commit.committedInstType_0::SimdFloatMisc            0      0.00%     62.90% # Class of committed instruction (Count)
system.cpu.commit.committedInstType_0::SimdFloatMult            0      0.00%     62.90% # Class of committed instruction (Count)
system.cpu.commit.committedInstType_0::SimdFloatMultAcc            0      0.00%     62.90% # Class of committed instruction (Count)
system.cpu.commit.committedInstType_0::SimdFloatSqrt            0      0.00%     62.90% # Class of committed instruction (Count)
system.cpu.commit.committedInstType_0::SimdReduceAdd            0      0.00%     62.90% # Class of committed instruction (Count)
system.cpu.commit.committedInstType_0::SimdReduceAlu            0      0.00%     62.90% # Class of committed instruction (Count)
system.cpu.commit.committedInstType_0::SimdReduceCmp            0      0.00%     62.90% # Class of committed instruction (Count)
system.cpu.commit.committedInstType_0::SimdFloatReduceAdd            0      0.00%     62.90% # Class of committed instruction (Count)
system.cpu.commit.committedInstType_0::SimdFloatReduceCmp            0      0.00%     62.90% # Class of committed instruction (Count)
system.cpu.commit.committedInstType_0::SimdAes            0      0.00%     62.90% # Class of committed instruction (Count)
system.cpu.commit.committedInstType_0::SimdAesMix            0      0.00%     62.90% # Class of committed instruction (Count)
system.cpu.commit.committedInstType_0::SimdSha1Hash            0      0.00%     62.90% # Class of committed instruction (Count)
system.cpu.commit.committedInstType_0::SimdSha1Hash2            0      0.00%     62.90% # Class of committed instruction (Count)
system.cpu.commit.committedInstType_0::SimdSha256Hash            0      0.00%     62.90% # Class of committed instruction (Count)
system.cpu.commit.committedInstType_0::SimdSha256Hash2            0      0.00%     62.90% # Class of committed instruction (Count)
system.cpu.commit.committedInstType_0::SimdShaSigma2            0      0.00%     62.90% # Class of committed instruction (Count)
system.cpu.commit.committedInstType_0::SimdShaSigma3            0      0.00%     62.90% # Class of committed instruction (Count)
system.cpu.commit.committedInstType_0::SimdPredAlu            0      0.00%     62.90% # Class of committed instruction (Count)
system.cpu.commit.committedInstType_0::MemRead     89716636     29.90%     92.80% # Class of committed instruction (Count)
system.cpu.commit.committedInstType_0::MemWrite     21594065      7.20%    100.00% # Class of committed instruction (Count)
system.cpu.commit.committedInstType_0::FloatMemRead            0      0.00%    100.00% # Class of committed instruction (Count)
system.cpu.commit.committedInstType_0::FloatMemWrite            0      0.00%    100.00% # Class of committed instruction (Count)
system.cpu.commit.committedInstType_0::IprAccess            0      0.00%    100.00% # Class of committed instruction (Count)
system.cpu.commit.committedInstType_0::InstPrefetch            0      0.00%    100.00% # Class of committed instruction (Count)
system.cpu.commit.committedInstType_0::total    300045736                       # Class of committed instruction (Count)
system.cpu.commit.commitEligibleSamples      17244066                       # number cycles where commit BW limit reached (Cycle)
system.cpu.dcache.demandHits::cpu.data       78245555                       # number of demand (read+write) hits (Count)
system.cpu.dcache.demandHits::total          78245555                       # number of demand (read+write) hits (Count)
system.cpu.dcache.overallHits::cpu.data      78350552                       # number of overall hits (Count)
system.cpu.dcache.overallHits::total         78350552                       # number of overall hits (Count)
system.cpu.dcache.demandMisses::cpu.data       409019                       # number of demand (read+write) misses (Count)
system.cpu.dcache.demandMisses::total          409019                       # number of demand (read+write) misses (Count)
system.cpu.dcache.overallMisses::cpu.data       409025                       # number of overall misses (Count)
system.cpu.dcache.overallMisses::total         409025                       # number of overall misses (Count)
system.cpu.dcache.demandMissLatency::cpu.data  24438128910                       # number of demand (read+write) miss ticks (Tick)
system.cpu.dcache.demandMissLatency::total  24438128910                       # number of demand (read+write) miss ticks (Tick)
system.cpu.dcache.overallMissLatency::cpu.data  24438128910                       # number of overall miss ticks (Tick)
system.cpu.dcache.overallMissLatency::total  24438128910                       # number of overall miss ticks (Tick)
system.cpu.dcache.demandAccesses::cpu.data     78654574                       # number of demand (read+write) accesses (Count)
system.cpu.dcache.demandAccesses::total      78654574                       # number of demand (read+write) accesses (Count)
system.cpu.dcache.overallAccesses::cpu.data     78759577                       # number of overall (read+write) accesses (Count)
system.cpu.dcache.overallAccesses::total     78759577                       # number of overall (read+write) accesses (Count)
system.cpu.dcache.demandMissRate::cpu.data     0.005200                       # miss rate for demand accesses (Ratio)
system.cpu.dcache.demandMissRate::total      0.005200                       # miss rate for demand accesses (Ratio)
system.cpu.dcache.overallMissRate::cpu.data     0.005193                       # miss rate for overall accesses (Ratio)
system.cpu.dcache.overallMissRate::total     0.005193                       # miss rate for overall accesses (Ratio)
system.cpu.dcache.demandAvgMissLatency::cpu.data 59748.150844                       # average overall miss latency ((Cycle/Count))
system.cpu.dcache.demandAvgMissLatency::total 59748.150844                       # average overall miss latency ((Cycle/Count))
system.cpu.dcache.overallAvgMissLatency::cpu.data 59747.274396                       # average overall miss latency ((Cycle/Count))
system.cpu.dcache.overallAvgMissLatency::total 59747.274396                       # average overall miss latency ((Cycle/Count))
system.cpu.dcache.blockedCycles::no_mshrs       753328                       # number of cycles access was blocked (Cycle)
system.cpu.dcache.blockedCycles::no_targets            0                       # number of cycles access was blocked (Cycle)
system.cpu.dcache.blockedCauses::no_mshrs        17899                       # number of times access was blocked (Count)
system.cpu.dcache.blockedCauses::no_targets            0                       # number of times access was blocked (Count)
system.cpu.dcache.avgBlocked::no_mshrs      42.087714                       # average number of cycles each access was blocked ((Cycle/Count))
system.cpu.dcache.avgBlocked::no_targets          nan                       # average number of cycles each access was blocked ((Cycle/Count))
system.cpu.dcache.writebacks::writebacks        52503                       # number of writebacks (Count)
system.cpu.dcache.writebacks::total             52503                       # number of writebacks (Count)
system.cpu.dcache.demandMshrHits::cpu.data       267138                       # number of demand (read+write) MSHR hits (Count)
system.cpu.dcache.demandMshrHits::total        267138                       # number of demand (read+write) MSHR hits (Count)
system.cpu.dcache.overallMshrHits::cpu.data       267138                       # number of overall MSHR hits (Count)
system.cpu.dcache.overallMshrHits::total       267138                       # number of overall MSHR hits (Count)
system.cpu.dcache.demandMshrMisses::cpu.data       141881                       # number of demand (read+write) MSHR misses (Count)
system.cpu.dcache.demandMshrMisses::total       141881                       # number of demand (read+write) MSHR misses (Count)
system.cpu.dcache.overallMshrMisses::cpu.data       141887                       # number of overall MSHR misses (Count)
system.cpu.dcache.overallMshrMisses::total       141887                       # number of overall MSHR misses (Count)
system.cpu.dcache.demandMshrMissLatency::cpu.data   8974257279                       # number of demand (read+write) MSHR miss ticks (Tick)
system.cpu.dcache.demandMshrMissLatency::total   8974257279                       # number of demand (read+write) MSHR miss ticks (Tick)
system.cpu.dcache.overallMshrMissLatency::cpu.data   8974771779                       # number of overall MSHR miss ticks (Tick)
system.cpu.dcache.overallMshrMissLatency::total   8974771779                       # number of overall MSHR miss ticks (Tick)
system.cpu.dcache.demandMshrMissRate::cpu.data     0.001804                       # mshr miss ratio for demand accesses (Ratio)
system.cpu.dcache.demandMshrMissRate::total     0.001804                       # mshr miss ratio for demand accesses (Ratio)
system.cpu.dcache.overallMshrMissRate::cpu.data     0.001802                       # mshr miss ratio for overall accesses (Ratio)
system.cpu.dcache.overallMshrMissRate::total     0.001802                       # mshr miss ratio for overall accesses (Ratio)
system.cpu.dcache.demandAvgMshrMissLatency::cpu.data 63252.001882                       # average overall mshr miss latency ((Cycle/Count))
system.cpu.dcache.demandAvgMshrMissLatency::total 63252.001882                       # average overall mshr miss latency ((Cycle/Count))
system.cpu.dcache.overallAvgMshrMissLatency::cpu.data 63252.953259                       # average overall mshr miss latency ((Cycle/Count))
system.cpu.dcache.overallAvgMshrMissLatency::total 63252.953259                       # average overall mshr miss latency ((Cycle/Count))
system.cpu.dcache.replacements                 140866                       # number of replacements (Count)
system.cpu.dcache.LoadLockedReq.hits::cpu.data           38                       # number of LoadLockedReq hits (Count)
system.cpu.dcache.LoadLockedReq.hits::total           38                       # number of LoadLockedReq hits (Count)
system.cpu.dcache.LoadLockedReq.misses::cpu.data            5                       # number of LoadLockedReq misses (Count)
system.cpu.dcache.LoadLockedReq.misses::total            5                       # number of LoadLockedReq misses (Count)
system.cpu.dcache.LoadLockedReq.missLatency::cpu.data       367000                       # number of LoadLockedReq miss ticks (Tick)
system.cpu.dcache.LoadLockedReq.missLatency::total       367000                       # number of LoadLockedReq miss ticks (Tick)
system.cpu.dcache.LoadLockedReq.accesses::cpu.data           43                       # number of LoadLockedReq accesses(hits+misses) (Count)
system.cpu.dcache.LoadLockedReq.accesses::total           43                       # number of LoadLockedReq accesses(hits+misses) (Count)
system.cpu.dcache.LoadLockedReq.missRate::cpu.data     0.116279                       # miss rate for LoadLockedReq accesses (Ratio)
system.cpu.dcache.LoadLockedReq.missRate::total     0.116279                       # miss rate for LoadLockedReq accesses (Ratio)
system.cpu.dcache.LoadLockedReq.avgMissLatency::cpu.data        73400                       # average LoadLockedReq miss latency ((Tick/Count))
system.cpu.dcache.LoadLockedReq.avgMissLatency::total        73400                       # average LoadLockedReq miss latency ((Tick/Count))
system.cpu.dcache.LoadLockedReq.mshrHits::cpu.data            2                       # number of LoadLockedReq MSHR hits (Count)
system.cpu.dcache.LoadLockedReq.mshrHits::total            2                       # number of LoadLockedReq MSHR hits (Count)
system.cpu.dcache.LoadLockedReq.mshrMisses::cpu.data            3                       # number of LoadLockedReq MSHR misses (Count)
system.cpu.dcache.LoadLockedReq.mshrMisses::total            3                       # number of LoadLockedReq MSHR misses (Count)
system.cpu.dcache.LoadLockedReq.mshrMissLatency::cpu.data       282500                       # number of LoadLockedReq MSHR miss ticks (Tick)
system.cpu.dcache.LoadLockedReq.mshrMissLatency::total       282500                       # number of LoadLockedReq MSHR miss ticks (Tick)
system.cpu.dcache.LoadLockedReq.mshrMissRate::cpu.data     0.069767                       # mshr miss rate for LoadLockedReq accesses (Ratio)
system.cpu.dcache.LoadLockedReq.mshrMissRate::total     0.069767                       # mshr miss rate for LoadLockedReq accesses (Ratio)
system.cpu.dcache.LoadLockedReq.avgMshrMissLatency::cpu.data 94166.666667                       # average LoadLockedReq mshr miss latency ((Tick/Count))
system.cpu.dcache.LoadLockedReq.avgMshrMissLatency::total 94166.666667                       # average LoadLockedReq mshr miss latency ((Tick/Count))
system.cpu.dcache.ReadReq.hits::cpu.data     56765795                       # number of ReadReq hits (Count)
system.cpu.dcache.ReadReq.hits::total        56765795                       # number of ReadReq hits (Count)
system.cpu.dcache.ReadReq.misses::cpu.data       340652                       # number of ReadReq misses (Count)
system.cpu.dcache.ReadReq.misses::total        340652                       # number of ReadReq misses (Count)
system.cpu.dcache.ReadReq.missLatency::cpu.data  19731752500                       # number of ReadReq miss ticks (Tick)
system.cpu.dcache.ReadReq.missLatency::total  19731752500                       # number of ReadReq miss ticks (Tick)
system.cpu.dcache.ReadReq.accesses::cpu.data     57106447                       # number of ReadReq accesses(hits+misses) (Count)
system.cpu.dcache.ReadReq.accesses::total     57106447                       # number of ReadReq accesses(hits+misses) (Count)
system.cpu.dcache.ReadReq.missRate::cpu.data     0.005965                       # miss rate for ReadReq accesses (Ratio)
system.cpu.dcache.ReadReq.missRate::total     0.005965                       # miss rate for ReadReq accesses (Ratio)
system.cpu.dcache.ReadReq.avgMissLatency::cpu.data 57923.489367                       # average ReadReq miss latency ((Tick/Count))
system.cpu.dcache.ReadReq.avgMissLatency::total 57923.489367                       # average ReadReq miss latency ((Tick/Count))
system.cpu.dcache.ReadReq.mshrHits::cpu.data       211208                       # number of ReadReq MSHR hits (Count)
system.cpu.dcache.ReadReq.mshrHits::total       211208                       # number of ReadReq MSHR hits (Count)
system.cpu.dcache.ReadReq.mshrMisses::cpu.data       129444                       # number of ReadReq MSHR misses (Count)
system.cpu.dcache.ReadReq.mshrMisses::total       129444                       # number of ReadReq MSHR misses (Count)
system.cpu.dcache.ReadReq.mshrMissLatency::cpu.data   8030727501                       # number of ReadReq MSHR miss ticks (Tick)
system.cpu.dcache.ReadReq.mshrMissLatency::total   8030727501                       # number of ReadReq MSHR miss ticks (Tick)
system.cpu.dcache.ReadReq.mshrMissRate::cpu.data     0.002267                       # mshr miss rate for ReadReq accesses (Ratio)
system.cpu.dcache.ReadReq.mshrMissRate::total     0.002267                       # mshr miss rate for ReadReq accesses (Ratio)
system.cpu.dcache.ReadReq.avgMshrMissLatency::cpu.data 62040.167957                       # average ReadReq mshr miss latency ((Tick/Count))
system.cpu.dcache.ReadReq.avgMshrMissLatency::total 62040.167957                       # average ReadReq mshr miss latency ((Tick/Count))
system.cpu.dcache.SoftPFReq.hits::cpu.data       104997                       # number of SoftPFReq hits (Count)
system.cpu.dcache.SoftPFReq.hits::total        104997                       # number of SoftPFReq hits (Count)
system.cpu.dcache.SoftPFReq.misses::cpu.data            6                       # number of SoftPFReq misses (Count)
system.cpu.dcache.SoftPFReq.misses::total            6                       # number of SoftPFReq misses (Count)
system.cpu.dcache.SoftPFReq.accesses::cpu.data       105003                       # number of SoftPFReq accesses(hits+misses) (Count)
system.cpu.dcache.SoftPFReq.accesses::total       105003                       # number of SoftPFReq accesses(hits+misses) (Count)
system.cpu.dcache.SoftPFReq.missRate::cpu.data     0.000057                       # miss rate for SoftPFReq accesses (Ratio)
system.cpu.dcache.SoftPFReq.missRate::total     0.000057                       # miss rate for SoftPFReq accesses (Ratio)
system.cpu.dcache.SoftPFReq.mshrMisses::cpu.data            6                       # number of SoftPFReq MSHR misses (Count)
system.cpu.dcache.SoftPFReq.mshrMisses::total            6                       # number of SoftPFReq MSHR misses (Count)
system.cpu.dcache.SoftPFReq.mshrMissLatency::cpu.data       514500                       # number of SoftPFReq MSHR miss ticks (Tick)
system.cpu.dcache.SoftPFReq.mshrMissLatency::total       514500                       # number of SoftPFReq MSHR miss ticks (Tick)
system.cpu.dcache.SoftPFReq.mshrMissRate::cpu.data     0.000057                       # mshr miss rate for SoftPFReq accesses (Ratio)
system.cpu.dcache.SoftPFReq.mshrMissRate::total     0.000057                       # mshr miss rate for SoftPFReq accesses (Ratio)
system.cpu.dcache.SoftPFReq.avgMshrMissLatency::cpu.data        85750                       # average SoftPFReq mshr miss latency ((Tick/Count))
system.cpu.dcache.SoftPFReq.avgMshrMissLatency::total        85750                       # average SoftPFReq mshr miss latency ((Tick/Count))
system.cpu.dcache.StoreCondReq.hits::cpu.data           10                       # number of StoreCondReq hits (Count)
system.cpu.dcache.StoreCondReq.hits::total           10                       # number of StoreCondReq hits (Count)
system.cpu.dcache.StoreCondReq.accesses::cpu.data           10                       # number of StoreCondReq accesses(hits+misses) (Count)
system.cpu.dcache.StoreCondReq.accesses::total           10                       # number of StoreCondReq accesses(hits+misses) (Count)
system.cpu.dcache.SwapReq.hits::cpu.data        45933                       # number of SwapReq hits (Count)
system.cpu.dcache.SwapReq.hits::total           45933                       # number of SwapReq hits (Count)
system.cpu.dcache.SwapReq.misses::cpu.data            1                       # number of SwapReq misses (Count)
system.cpu.dcache.SwapReq.misses::total             1                       # number of SwapReq misses (Count)
system.cpu.dcache.SwapReq.missLatency::cpu.data       108000                       # number of SwapReq miss ticks (Tick)
system.cpu.dcache.SwapReq.missLatency::total       108000                       # number of SwapReq miss ticks (Tick)
system.cpu.dcache.SwapReq.accesses::cpu.data        45934                       # number of SwapReq accesses(hits+misses) (Count)
system.cpu.dcache.SwapReq.accesses::total        45934                       # number of SwapReq accesses(hits+misses) (Count)
system.cpu.dcache.SwapReq.missRate::cpu.data     0.000022                       # miss rate for SwapReq accesses (Ratio)
system.cpu.dcache.SwapReq.missRate::total     0.000022                       # miss rate for SwapReq accesses (Ratio)
system.cpu.dcache.SwapReq.avgMissLatency::cpu.data       108000                       # average SwapReq miss latency ((Tick/Count))
system.cpu.dcache.SwapReq.avgMissLatency::total       108000                       # average SwapReq miss latency ((Tick/Count))
system.cpu.dcache.SwapReq.mshrHits::cpu.data            1                       # number of SwapReq MSHR hits (Count)
system.cpu.dcache.SwapReq.mshrHits::total            1                       # number of SwapReq MSHR hits (Count)
system.cpu.dcache.WriteLineReq.misses::cpu.data         2054                       # number of WriteLineReq misses (Count)
system.cpu.dcache.WriteLineReq.misses::total         2054                       # number of WriteLineReq misses (Count)
system.cpu.dcache.WriteLineReq.missLatency::cpu.data     35105326                       # number of WriteLineReq miss ticks (Tick)
system.cpu.dcache.WriteLineReq.missLatency::total     35105326                       # number of WriteLineReq miss ticks (Tick)
system.cpu.dcache.WriteLineReq.accesses::cpu.data         2054                       # number of WriteLineReq accesses(hits+misses) (Count)
system.cpu.dcache.WriteLineReq.accesses::total         2054                       # number of WriteLineReq accesses(hits+misses) (Count)
system.cpu.dcache.WriteLineReq.missRate::cpu.data            1                       # miss rate for WriteLineReq accesses (Ratio)
system.cpu.dcache.WriteLineReq.missRate::total            1                       # miss rate for WriteLineReq accesses (Ratio)
system.cpu.dcache.WriteLineReq.avgMissLatency::cpu.data 17091.200584                       # average WriteLineReq miss latency ((Tick/Count))
system.cpu.dcache.WriteLineReq.avgMissLatency::total 17091.200584                       # average WriteLineReq miss latency ((Tick/Count))
system.cpu.dcache.WriteLineReq.mshrMisses::cpu.data         2054                       # number of WriteLineReq MSHR misses (Count)
system.cpu.dcache.WriteLineReq.mshrMisses::total         2054                       # number of WriteLineReq MSHR misses (Count)
system.cpu.dcache.WriteLineReq.mshrMissLatency::cpu.data     33051326                       # number of WriteLineReq MSHR miss ticks (Tick)
system.cpu.dcache.WriteLineReq.mshrMissLatency::total     33051326                       # number of WriteLineReq MSHR miss ticks (Tick)
system.cpu.dcache.WriteLineReq.mshrMissRate::cpu.data            1                       # mshr miss rate for WriteLineReq accesses (Ratio)
system.cpu.dcache.WriteLineReq.mshrMissRate::total            1                       # mshr miss rate for WriteLineReq accesses (Ratio)
system.cpu.dcache.WriteLineReq.avgMshrMissLatency::cpu.data 16091.200584                       # average WriteLineReq mshr miss latency ((Tick/Count))
system.cpu.dcache.WriteLineReq.avgMshrMissLatency::total 16091.200584                       # average WriteLineReq mshr miss latency ((Tick/Count))
system.cpu.dcache.WriteReq.hits::cpu.data     21479760                       # number of WriteReq hits (Count)
system.cpu.dcache.WriteReq.hits::total       21479760                       # number of WriteReq hits (Count)
system.cpu.dcache.WriteReq.misses::cpu.data        66313                       # number of WriteReq misses (Count)
system.cpu.dcache.WriteReq.misses::total        66313                       # number of WriteReq misses (Count)
system.cpu.dcache.WriteReq.missLatency::cpu.data   4671271084                       # number of WriteReq miss ticks (Tick)
system.cpu.dcache.WriteReq.missLatency::total   4671271084                       # number of WriteReq miss ticks (Tick)
system.cpu.dcache.WriteReq.accesses::cpu.data     21546073                       # number of WriteReq accesses(hits+misses) (Count)
system.cpu.dcache.WriteReq.accesses::total     21546073                       # number of WriteReq accesses(hits+misses) (Count)
system.cpu.dcache.WriteReq.missRate::cpu.data     0.003078                       # miss rate for WriteReq accesses (Ratio)
system.cpu.dcache.WriteReq.missRate::total     0.003078                       # miss rate for WriteReq accesses (Ratio)
system.cpu.dcache.WriteReq.avgMissLatency::cpu.data 70442.765129                       # average WriteReq miss latency ((Tick/Count))
system.cpu.dcache.WriteReq.avgMissLatency::total 70442.765129                       # average WriteReq miss latency ((Tick/Count))
system.cpu.dcache.WriteReq.mshrHits::cpu.data        55930                       # number of WriteReq MSHR hits (Count)
system.cpu.dcache.WriteReq.mshrHits::total        55930                       # number of WriteReq MSHR hits (Count)
system.cpu.dcache.WriteReq.mshrMisses::cpu.data        10383                       # number of WriteReq MSHR misses (Count)
system.cpu.dcache.WriteReq.mshrMisses::total        10383                       # number of WriteReq MSHR misses (Count)
system.cpu.dcache.WriteReq.mshrMissLatency::cpu.data    910478452                       # number of WriteReq MSHR miss ticks (Tick)
system.cpu.dcache.WriteReq.mshrMissLatency::total    910478452                       # number of WriteReq MSHR miss ticks (Tick)
system.cpu.dcache.WriteReq.mshrMissRate::cpu.data     0.000482                       # mshr miss rate for WriteReq accesses (Ratio)
system.cpu.dcache.WriteReq.mshrMissRate::total     0.000482                       # mshr miss rate for WriteReq accesses (Ratio)
system.cpu.dcache.WriteReq.avgMshrMissLatency::cpu.data 87689.343350                       # average WriteReq mshr miss latency ((Tick/Count))
system.cpu.dcache.WriteReq.avgMshrMissLatency::total 87689.343350                       # average WriteReq mshr miss latency ((Tick/Count))
system.cpu.dcache.power_state.pwrStateResidencyTicks::UNDEFINED  67295588500                       # Cumulative time (in ticks) in various power states (Tick)
system.cpu.dcache.tags.tagsInUse          1023.366289                       # Average ticks per tags in use ((Tick/Count))
system.cpu.dcache.tags.totalRefs             78538423                       # Total number of references to valid blocks. (Count)
system.cpu.dcache.tags.sampledRefs             141890                       # Sample count of references to valid blocks. (Count)
system.cpu.dcache.tags.avgRefs             553.516266                       # Average number of references to valid blocks. ((Count/Count))
system.cpu.dcache.tags.warmupTick              145000                       # The tick when the warmup percentage was hit. (Tick)
system.cpu.dcache.tags.occupancies::cpu.data  1023.366289                       # Average occupied blocks per tick, per requestor ((Count/Tick))
system.cpu.dcache.tags.avgOccs::cpu.data     0.999381                       # Average percentage of cache occupancy ((Ratio/Tick))
system.cpu.dcache.tags.avgOccs::total        0.999381                       # Average percentage of cache occupancy ((Ratio/Tick))
system.cpu.dcache.tags.occupanciesTaskId::1024         1024                       # Occupied blocks per task id (Count)
system.cpu.dcache.tags.ageTaskId_1024::0           77                       # Occupied blocks per task id, per block age (Count)
system.cpu.dcache.tags.ageTaskId_1024::1            8                       # Occupied blocks per task id, per block age (Count)
system.cpu.dcache.tags.ageTaskId_1024::2          105                       # Occupied blocks per task id, per block age (Count)
system.cpu.dcache.tags.ageTaskId_1024::3          653                       # Occupied blocks per task id, per block age (Count)
system.cpu.dcache.tags.ageTaskId_1024::4          181                       # Occupied blocks per task id, per block age (Count)
system.cpu.dcache.tags.ratioOccsTaskId::1024            1                       # Ratio of occupied blocks and all blocks, per task id (Ratio)
system.cpu.dcache.tags.tagAccesses          157753018                       # Number of tag accesses (Count)
system.cpu.dcache.tags.dataAccesses         157753018                       # Number of data accesses (Count)
system.cpu.dcache.tags.power_state.pwrStateResidencyTicks::UNDEFINED  67295588500                       # Cumulative time (in ticks) in various power states (Tick)
system.cpu.decode.idleCycles                 47943701                       # Number of cycles decode is idle (Cycle)
system.cpu.decode.blockedCycles              21494781                       # Number of cycles decode is blocked (Cycle)
system.cpu.decode.runCycles                  57362438                       # Number of cycles decode is running (Cycle)
system.cpu.decode.unblockCycles               2837691                       # Number of cycles decode is unblocking (Cycle)
system.cpu.decode.squashCycles                 382226                       # Number of cycles decode is squashing (Cycle)
system.cpu.decode.branchResolved             30005421                       # Number of times decode resolved a branch (Count)
system.cpu.decode.branchMispred                 66618                       # Number of times decode detected a branch misprediction (Count)
system.cpu.decode.decodedInsts              315050014                       # Number of instructions handled by decode (Count)
system.cpu.decode.squashedInsts                140086                       # Number of squashed instructions handled by decode (Count)
system.cpu.fetch.icacheStallCycles           52253099                       # Number of cycles fetch is stalled on an Icache miss (Cycle)
system.cpu.fetch.insts                      306364544                       # Number of instructions fetch has processed (Count)
system.cpu.fetch.branches                    49268284                       # Number of branches that fetch encountered (Count)
system.cpu.fetch.predictedBranches           31720813                       # Number of branches that fetch has predicted taken (Count)
system.cpu.fetch.cycles                      77318780                       # Number of cycles fetch has run and was not squashing or blocked (Cycle)
system.cpu.fetch.squashCycles                  897674                       # Number of cycles fetch has spent squashing (Cycle)
system.cpu.fetch.miscStallCycles                    8                       # Number of cycles fetch has spent waiting on interrupts, or bad addresses, or out of MSHRs (Cycle)
system.cpu.fetch.icacheWaitRetryStallCycles          113                       # Number of stall cycles due to full MSHR (Cycle)
system.cpu.fetch.cacheLines                  46225810                       # Number of cache lines fetched (Count)
system.cpu.fetch.icacheSquashes                199737                       # Number of outstanding Icache misses that were squashed (Count)
system.cpu.fetch.nisnDist::samples          130020837                       # Number of instructions fetched each cycle (Total) (Count)
system.cpu.fetch.nisnDist::mean              2.449036                       # Number of instructions fetched each cycle (Total) (Count)
system.cpu.fetch.nisnDist::stdev             2.994700                       # Number of instructions fetched each cycle (Total) (Count)
system.cpu.fetch.nisnDist::underflows               0      0.00%      0.00% # Number of instructions fetched each cycle (Total) (Count)
system.cpu.fetch.nisnDist::0                 66917587     51.47%     51.47% # Number of instructions fetched each cycle (Total) (Count)
system.cpu.fetch.nisnDist::1                  1707128      1.31%     52.78% # Number of instructions fetched each cycle (Total) (Count)
system.cpu.fetch.nisnDist::2                 13560398     10.43%     63.21% # Number of instructions fetched each cycle (Total) (Count)
system.cpu.fetch.nisnDist::3                  1670953      1.29%     64.49% # Number of instructions fetched each cycle (Total) (Count)
system.cpu.fetch.nisnDist::4                 12732307      9.79%     74.29% # Number of instructions fetched each cycle (Total) (Count)
system.cpu.fetch.nisnDist::5                  2079265      1.60%     75.89% # Number of instructions fetched each cycle (Total) (Count)
system.cpu.fetch.nisnDist::6                 13047794     10.04%     85.92% # Number of instructions fetched each cycle (Total) (Count)
system.cpu.fetch.nisnDist::7                  1470683      1.13%     87.05% # Number of instructions fetched each cycle (Total) (Count)
system.cpu.fetch.nisnDist::8                 16834722     12.95%    100.00% # Number of instructions fetched each cycle (Total) (Count)
system.cpu.fetch.nisnDist::overflows                0      0.00%    100.00% # Number of instructions fetched each cycle (Total) (Count)
system.cpu.fetch.nisnDist::min_value                0                       # Number of instructions fetched each cycle (Total) (Count)
system.cpu.fetch.nisnDist::max_value                8                       # Number of instructions fetched each cycle (Total) (Count)
system.cpu.fetch.nisnDist::total            130020837                       # Number of instructions fetched each cycle (Total) (Count)
system.cpu.fetch.branchRate                  0.366059                       # Number of branch fetches per cycle (Ratio)
system.cpu.fetch.rate                        2.276260                       # Number of inst fetches per cycle ((Count/Cycle))
system.cpu.icache.demandHits::cpu.inst       45970654                       # number of demand (read+write) hits (Count)
system.cpu.icache.demandHits::total          45970654                       # number of demand (read+write) hits (Count)
system.cpu.icache.overallHits::cpu.inst      45970654                       # number of overall hits (Count)
system.cpu.icache.overallHits::total         45970654                       # number of overall hits (Count)
system.cpu.icache.demandMisses::cpu.inst       255156                       # number of demand (read+write) misses (Count)
system.cpu.icache.demandMisses::total          255156                       # number of demand (read+write) misses (Count)
system.cpu.icache.overallMisses::cpu.inst       255156                       # number of overall misses (Count)
system.cpu.icache.overallMisses::total         255156                       # number of overall misses (Count)
system.cpu.icache.demandMissLatency::cpu.inst   5920473997                       # number of demand (read+write) miss ticks (Tick)
system.cpu.icache.demandMissLatency::total   5920473997                       # number of demand (read+write) miss ticks (Tick)
system.cpu.icache.overallMissLatency::cpu.inst   5920473997                       # number of overall miss ticks (Tick)
system.cpu.icache.overallMissLatency::total   5920473997                       # number of overall miss ticks (Tick)
system.cpu.icache.demandAccesses::cpu.inst     46225810                       # number of demand (read+write) accesses (Count)
system.cpu.icache.demandAccesses::total      46225810                       # number of demand (read+write) accesses (Count)
system.cpu.icache.overallAccesses::cpu.inst     46225810                       # number of overall (read+write) accesses (Count)
system.cpu.icache.overallAccesses::total     46225810                       # number of overall (read+write) accesses (Count)
system.cpu.icache.demandMissRate::cpu.inst     0.005520                       # miss rate for demand accesses (Ratio)
system.cpu.icache.demandMissRate::total      0.005520                       # miss rate for demand accesses (Ratio)
system.cpu.icache.overallMissRate::cpu.inst     0.005520                       # miss rate for overall accesses (Ratio)
system.cpu.icache.overallMissRate::total     0.005520                       # miss rate for overall accesses (Ratio)
system.cpu.icache.demandAvgMissLatency::cpu.inst 23203.350096                       # average overall miss latency ((Cycle/Count))
system.cpu.icache.demandAvgMissLatency::total 23203.350096                       # average overall miss latency ((Cycle/Count))
system.cpu.icache.overallAvgMissLatency::cpu.inst 23203.350096                       # average overall miss latency ((Cycle/Count))
system.cpu.icache.overallAvgMissLatency::total 23203.350096                       # average overall miss latency ((Cycle/Count))
system.cpu.icache.blockedCycles::no_mshrs         1736                       # number of cycles access was blocked (Cycle)
system.cpu.icache.blockedCycles::no_targets            0                       # number of cycles access was blocked (Cycle)
system.cpu.icache.blockedCauses::no_mshrs           21                       # number of times access was blocked (Count)
system.cpu.icache.blockedCauses::no_targets            0                       # number of times access was blocked (Count)
system.cpu.icache.avgBlocked::no_mshrs      82.666667                       # average number of cycles each access was blocked ((Cycle/Count))
system.cpu.icache.avgBlocked::no_targets          nan                       # average number of cycles each access was blocked ((Cycle/Count))
system.cpu.icache.writebacks::writebacks       243793                       # number of writebacks (Count)
system.cpu.icache.writebacks::total            243793                       # number of writebacks (Count)
system.cpu.icache.demandMshrHits::cpu.inst        10862                       # number of demand (read+write) MSHR hits (Count)
system.cpu.icache.demandMshrHits::total         10862                       # number of demand (read+write) MSHR hits (Count)
system.cpu.icache.overallMshrHits::cpu.inst        10862                       # number of overall MSHR hits (Count)
system.cpu.icache.overallMshrHits::total        10862                       # number of overall MSHR hits (Count)
system.cpu.icache.demandMshrMisses::cpu.inst       244294                       # number of demand (read+write) MSHR misses (Count)
system.cpu.icache.demandMshrMisses::total       244294                       # number of demand (read+write) MSHR misses (Count)
system.cpu.icache.overallMshrMisses::cpu.inst       244294                       # number of overall MSHR misses (Count)
system.cpu.icache.overallMshrMisses::total       244294                       # number of overall MSHR misses (Count)
system.cpu.icache.demandMshrMissLatency::cpu.inst   5521832498                       # number of demand (read+write) MSHR miss ticks (Tick)
system.cpu.icache.demandMshrMissLatency::total   5521832498                       # number of demand (read+write) MSHR miss ticks (Tick)
system.cpu.icache.overallMshrMissLatency::cpu.inst   5521832498                       # number of overall MSHR miss ticks (Tick)
system.cpu.icache.overallMshrMissLatency::total   5521832498                       # number of overall MSHR miss ticks (Tick)
system.cpu.icache.demandMshrMissRate::cpu.inst     0.005285                       # mshr miss ratio for demand accesses (Ratio)
system.cpu.icache.demandMshrMissRate::total     0.005285                       # mshr miss ratio for demand accesses (Ratio)
system.cpu.icache.overallMshrMissRate::cpu.inst     0.005285                       # mshr miss ratio for overall accesses (Ratio)
system.cpu.icache.overallMshrMissRate::total     0.005285                       # mshr miss ratio for overall accesses (Ratio)
system.cpu.icache.demandAvgMshrMissLatency::cpu.inst 22603.226023                       # average overall mshr miss latency ((Cycle/Count))
system.cpu.icache.demandAvgMshrMissLatency::total 22603.226023                       # average overall mshr miss latency ((Cycle/Count))
system.cpu.icache.overallAvgMshrMissLatency::cpu.inst 22603.226023                       # average overall mshr miss latency ((Cycle/Count))
system.cpu.icache.overallAvgMshrMissLatency::total 22603.226023                       # average overall mshr miss latency ((Cycle/Count))
system.cpu.icache.replacements                 243793                       # number of replacements (Count)
system.cpu.icache.ReadReq.hits::cpu.inst     45970654                       # number of ReadReq hits (Count)
system.cpu.icache.ReadReq.hits::total        45970654                       # number of ReadReq hits (Count)
system.cpu.icache.ReadReq.misses::cpu.inst       255156                       # number of ReadReq misses (Count)
system.cpu.icache.ReadReq.misses::total        255156                       # number of ReadReq misses (Count)
system.cpu.icache.ReadReq.missLatency::cpu.inst   5920473997                       # number of ReadReq miss ticks (Tick)
system.cpu.icache.ReadReq.missLatency::total   5920473997                       # number of ReadReq miss ticks (Tick)
system.cpu.icache.ReadReq.accesses::cpu.inst     46225810                       # number of ReadReq accesses(hits+misses) (Count)
system.cpu.icache.ReadReq.accesses::total     46225810                       # number of ReadReq accesses(hits+misses) (Count)
system.cpu.icache.ReadReq.missRate::cpu.inst     0.005520                       # miss rate for ReadReq accesses (Ratio)
system.cpu.icache.ReadReq.missRate::total     0.005520                       # miss rate for ReadReq accesses (Ratio)
system.cpu.icache.ReadReq.avgMissLatency::cpu.inst 23203.350096                       # average ReadReq miss latency ((Tick/Count))
system.cpu.icache.ReadReq.avgMissLatency::total 23203.350096                       # average ReadReq miss latency ((Tick/Count))
system.cpu.icache.ReadReq.mshrHits::cpu.inst        10862                       # number of ReadReq MSHR hits (Count)
system.cpu.icache.ReadReq.mshrHits::total        10862                       # number of ReadReq MSHR hits (Count)
system.cpu.icache.ReadReq.mshrMisses::cpu.inst       244294                       # number of ReadReq MSHR misses (Count)
system.cpu.icache.ReadReq.mshrMisses::total       244294                       # number of ReadReq MSHR misses (Count)
system.cpu.icache.ReadReq.mshrMissLatency::cpu.inst   5521832498                       # number of ReadReq MSHR miss ticks (Tick)
system.cpu.icache.ReadReq.mshrMissLatency::total   5521832498                       # number of ReadReq MSHR miss ticks (Tick)
system.cpu.icache.ReadReq.mshrMissRate::cpu.inst     0.005285                       # mshr miss rate for ReadReq accesses (Ratio)
system.cpu.icache.ReadReq.mshrMissRate::total     0.005285                       # mshr miss rate for ReadReq accesses (Ratio)
system.cpu.icache.ReadReq.avgMshrMissLatency::cpu.inst 22603.226023                       # average ReadReq mshr miss latency ((Tick/Count))
system.cpu.icache.ReadReq.avgMshrMissLatency::total 22603.226023                       # average ReadReq mshr miss latency ((Tick/Count))
system.cpu.icache.power_state.pwrStateResidencyTicks::UNDEFINED  67295588500                       # Cumulative time (in ticks) in various power states (Tick)
system.cpu.icache.tags.tagsInUse           494.980695                       # Average ticks per tags in use ((Tick/Count))
system.cpu.icache.tags.totalRefs             46214947                       # Total number of references to valid blocks. (Count)
system.cpu.icache.tags.sampledRefs             244293                       # Sample count of references to valid blocks. (Count)
system.cpu.icache.tags.avgRefs             189.178351                       # Average number of references to valid blocks. ((Count/Count))
system.cpu.icache.tags.warmupTick               77000                       # The tick when the warmup percentage was hit. (Tick)
system.cpu.icache.tags.occupancies::cpu.inst   494.980695                       # Average occupied blocks per tick, per requestor ((Count/Tick))
system.cpu.icache.tags.avgOccs::cpu.inst     0.966759                       # Average percentage of cache occupancy ((Ratio/Tick))
system.cpu.icache.tags.avgOccs::total        0.966759                       # Average percentage of cache occupancy ((Ratio/Tick))
system.cpu.icache.tags.occupanciesTaskId::1024          500                       # Occupied blocks per task id (Count)
system.cpu.icache.tags.ageTaskId_1024::0          100                       # Occupied blocks per task id, per block age (Count)
system.cpu.icache.tags.ageTaskId_1024::2            6                       # Occupied blocks per task id, per block age (Count)
system.cpu.icache.tags.ageTaskId_1024::3           17                       # Occupied blocks per task id, per block age (Count)
system.cpu.icache.tags.ageTaskId_1024::4          377                       # Occupied blocks per task id, per block age (Count)
system.cpu.icache.tags.ratioOccsTaskId::1024     0.976562                       # Ratio of occupied blocks and all blocks, per task id (Ratio)
system.cpu.icache.tags.tagAccesses           92695913                       # Number of tag accesses (Count)
system.cpu.icache.tags.dataAccesses          92695913                       # Number of data accesses (Count)
system.cpu.icache.tags.power_state.pwrStateResidencyTicks::UNDEFINED  67295588500                       # Cumulative time (in ticks) in various power states (Tick)
system.cpu.iew.idleCycles                           0                       # Number of cycles IEW is idle (Cycle)
system.cpu.iew.squashCycles                    382226                       # Number of cycles IEW is squashing (Cycle)
system.cpu.iew.blockCycles                    2349834                       # Number of cycles IEW is blocking (Cycle)
[...]
system.mem_ctrls.dram.bwRead::cpu.inst      232329523                       # Total read bandwidth from this memory ((Byte/Second))
system.mem_ctrls.dram.bwRead::cpu.data      132795867                       # Total read bandwidth from this memory ((Byte/Second))
system.mem_ctrls.dram.bwRead::total         365125390                       # Total read bandwidth from this memory ((Byte/Second))
system.mem_ctrls.dram.bwInstRead::cpu.inst    232329523                       # Instruction read bandwidth from this memory ((Byte/Second))
system.mem_ctrls.dram.bwInstRead::total     232329523                       # Instruction read bandwidth from this memory ((Byte/Second))
system.mem_ctrls.dram.bwWrite::writebacks     49931832                       # Write bandwidth from this memory ((Byte/Second))
system.mem_ctrls.dram.bwWrite::total         49931832                       # Write bandwidth from this memory ((Byte/Second))
system.mem_ctrls.dram.bwTotal::writebacks     49931832                       # Total bandwidth to/from this memory ((Byte/Second))
system.mem_ctrls.dram.bwTotal::cpu.inst     232329523                       # Total bandwidth to/from this memory ((Byte/Second))
system.mem_ctrls.dram.bwTotal::cpu.data     132795867                       # Total bandwidth to/from this memory ((Byte/Second))
system.mem_ctrls.dram.bwTotal::total        415057222                       # Total bandwidth to/from this memory ((Byte/Second))
system.mem_ctrls.dram.readBursts               141129                       # Number of DRAM read bursts (Count)
system.mem_ctrls.dram.writeBursts               55781                       # Number of DRAM write bursts (Count)
system.mem_ctrls.dram.perBankRdBursts::0        14443                       # Per bank write bursts (Count)
system.mem_ctrls.dram.perBankRdBursts::1        19305                       # Per bank write bursts (Count)
system.mem_ctrls.dram.perBankRdBursts::2        17704                       # Per bank write bursts (Count)
system.mem_ctrls.dram.perBankRdBursts::3         4061                       # Per bank write bursts (Count)
system.mem_ctrls.dram.perBankRdBursts::4        16739                       # Per bank write bursts (Count)
system.mem_ctrls.dram.perBankRdBursts::5        19318                       # Per bank write bursts (Count)
system.mem_ctrls.dram.perBankRdBursts::6        15665                       # Per bank write bursts (Count)
system.mem_ctrls.dram.perBankRdBursts::7         4248                       # Per bank write bursts (Count)
system.mem_ctrls.dram.perBankRdBursts::8         3679                       # Per bank write bursts (Count)
system.mem_ctrls.dram.perBankRdBursts::9         4101                       # Per bank write bursts (Count)
system.mem_ctrls.dram.perBankRdBursts::10         3697                       # Per bank write bursts (Count)
system.mem_ctrls.dram.perBankRdBursts::11         3144                       # Per bank write bursts (Count)
system.mem_ctrls.dram.perBankRdBursts::12         4036                       # Per bank write bursts (Count)
system.mem_ctrls.dram.perBankRdBursts::13         4009                       # Per bank write bursts (Count)
system.mem_ctrls.dram.perBankRdBursts::14         3762                       # Per bank write bursts (Count)
system.mem_ctrls.dram.perBankRdBursts::15         3218                       # Per bank write bursts (Count)
system.mem_ctrls.dram.perBankWrBursts::0         3450                       # Per bank write bursts (Count)
system.mem_ctrls.dram.perBankWrBursts::1         3638                       # Per bank write bursts (Count)
system.mem_ctrls.dram.perBankWrBursts::2         3671                       # Per bank write bursts (Count)
system.mem_ctrls.dram.perBankWrBursts::3         3157                       # Per bank write bursts (Count)
system.mem_ctrls.dram.perBankWrBursts::4         3729                       # Per bank write bursts (Count)
system.mem_ctrls.dram.perBankWrBursts::5         3941                       # Per bank write bursts (Count)
system.mem_ctrls.dram.perBankWrBursts::6         3379                       # Per bank write bursts (Count)
system.mem_ctrls.dram.perBankWrBursts::7         3565                       # Per bank write bursts (Count)
system.mem_ctrls.dram.perBankWrBursts::8         3161                       # Per bank write bursts (Count)
system.mem_ctrls.dram.perBankWrBursts::9         4123                       # Per bank write bursts (Count)
system.mem_ctrls.dram.perBankWrBursts::10         3052                       # Per bank write bursts (Count)
system.mem_ctrls.dram.perBankWrBursts::11         2978                       # Per bank write bursts (Count)
system.mem_ctrls.dram.perBankWrBursts::12         3506                       # Per bank write bursts (Count)
system.mem_ctrls.dram.perBankWrBursts::13         4460                       # Per bank write bursts (Count)
system.mem_ctrls.dram.perBankWrBursts::14         3248                       # Per bank write bursts (Count)
system.mem_ctrls.dram.perBankWrBursts::15         2723                       # Per bank write bursts (Count)
system.mem_ctrls.dram.totQLat              1948575000                       # Total ticks spent queuing (Tick)
system.mem_ctrls.dram.totBusLat             705645000                       # Total ticks spent in databus transfers (Tick)
system.mem_ctrls.dram.totMemAccLat         4594743750                       # Total ticks spent from burst creation until serviced by the DRAM (Tick)
system.mem_ctrls.dram.avgQLat                13807.05                       # Average queueing delay per DRAM burst ((Tick/Count))
system.mem_ctrls.dram.avgBusLat               5000.00                       # Average bus latency per DRAM burst ((Tick/Count))
system.mem_ctrls.dram.avgMemAccLat           32557.05                       # Average memory access latency per DRAM burst ((Tick/Count))
system.mem_ctrls.dram.readRowHits              106431                       # Number of row buffer hits during reads (Count)
system.mem_ctrls.dram.writeRowHits              47954                       # Number of row buffer hits during writes (Count)
system.mem_ctrls.dram.readRowHitRate            75.41                       # Row buffer hit rate for reads (Ratio)
system.mem_ctrls.dram.writeRowHitRate           85.97                       # Row buffer hit rate for writes (Ratio)
system.mem_ctrls.dram.bytesPerActivate::samples        42512                       # Bytes accessed per row activation (Byte)
system.mem_ctrls.dram.bytesPerActivate::mean   296.385397                       # Bytes accessed per row activation (Byte)
system.mem_ctrls.dram.bytesPerActivate::gmean   187.411527                       # Bytes accessed per row activation (Byte)
system.mem_ctrls.dram.bytesPerActivate::stdev   281.181101                       # Bytes accessed per row activation (Byte)
system.mem_ctrls.dram.bytesPerActivate::0-127        15232     35.83%     35.83% # Bytes accessed per row activation (Byte)
system.mem_ctrls.dram.bytesPerActivate::128-255         8627     20.29%     56.12% # Bytes accessed per row activation (Byte)
system.mem_ctrls.dram.bytesPerActivate::256-383         5872     13.81%     69.94% # Bytes accessed per row activation (Byte)
system.mem_ctrls.dram.bytesPerActivate::384-511         3176      7.47%     77.41% # Bytes accessed per row activation (Byte)
system.mem_ctrls.dram.bytesPerActivate::512-639         2509      5.90%     83.31% # Bytes accessed per row activation (Byte)
system.mem_ctrls.dram.bytesPerActivate::640-767         2197      5.17%     88.48% # Bytes accessed per row activation (Byte)
system.mem_ctrls.dram.bytesPerActivate::768-895         2075      4.88%     93.36% # Bytes accessed per row activation (Byte)
system.mem_ctrls.dram.bytesPerActivate::896-1023         1346      3.17%     96.52% # Bytes accessed per row activation (Byte)
system.mem_ctrls.dram.bytesPerActivate::1024-1151         1478      3.48%    100.00% # Bytes accessed per row activation (Byte)
system.mem_ctrls.dram.bytesPerActivate::total        42512                       # Bytes accessed per row activation (Byte)
system.mem_ctrls.dram.bytesRead               9032256                       # Total bytes read (Byte)
system.mem_ctrls.dram.bytesWritten            3569984                       # Total bytes written (Byte)
system.mem_ctrls.dram.avgRdBW              134.217654                       # Average DRAM read bandwidth in MiBytes/s ((Byte/Second))
system.mem_ctrls.dram.avgWrBW               53.049302                       # Average DRAM write bandwidth in MiBytes/s ((Byte/Second))
system.mem_ctrls.dram.peakBW                 12800.00                       # Theoretical peak bandwidth in MiByte/s ((Byte/Second))
system.mem_ctrls.dram.busUtil                    1.46                       # Data bus utilization in percentage (Ratio)
system.mem_ctrls.dram.busUtilRead                1.05                       # Data bus utilization in percentage for reads (Ratio)
system.mem_ctrls.dram.busUtilWrite               0.41                       # Data bus utilization in percentage for writes (Ratio)
system.mem_ctrls.dram.pageHitRate               78.40                       # Row buffer hit rate, read and write combined (Ratio)
system.mem_ctrls.dram.power_state.pwrStateResidencyTicks::UNDEFINED  67295588500                       # Cumulative time (in ticks) in various power states (Tick)
system.mem_ctrls.dram.rank0.actEnergy       222775140                       # Energy for activate commands per rank (pJ) (Joule)
system.mem_ctrls.dram.rank0.preEnergy       118385025                       # Energy for precharge commands per rank (pJ) (Joule)
system.mem_ctrls.dram.rank0.readEnergy      795981480                       # Energy for read commands per rank (pJ) (Joule)
system.mem_ctrls.dram.rank0.writeEnergy     148926600                       # Energy for write commands per rank (pJ) (Joule)
system.mem_ctrls.dram.rank0.refreshEnergy 5311718880.000001                       # Energy for refresh commands per rank (pJ) (Joule)
system.mem_ctrls.dram.rank0.actBackEnergy  22099020840                       # Energy for active background per rank (pJ) (Joule)
system.mem_ctrls.dram.rank0.preBackEnergy   7231804320                       # Energy for precharge background per rank (pJ) (Joule)
system.mem_ctrls.dram.rank0.actPowerDownEnergy            0                       # Energy for active power-down per rank (pJ) (Joule)
system.mem_ctrls.dram.rank0.prePowerDownEnergy            0                       # Energy for precharge power-down per rank (pJ) (Joule)
system.mem_ctrls.dram.rank0.selfRefreshEnergy            0                       # Energy for self refresh per rank (pJ) (Joule)
system.mem_ctrls.dram.rank0.totalEnergy   35928612285                       # Total energy per rank (pJ) (Joule)
system.mem_ctrls.dram.rank0.averagePower   533.892534                       # Core power per rank (mW) (Watt)
system.mem_ctrls.dram.rank0.totalIdleTime            0                       # Total Idle time Per DRAM Rank (Tick)
system.mem_ctrls.dram.rank0.pwrStateTime::IDLE  18583220000                       # Time in different power states (Tick)
system.mem_ctrls.dram.rank0.pwrStateTime::REF   2246920000                       # Time in different power states (Tick)
system.mem_ctrls.dram.rank0.pwrStateTime::SREF            0                       # Time in different power states (Tick)
system.mem_ctrls.dram.rank0.pwrStateTime::PRE_PDN            0                       # Time in different power states (Tick)
system.mem_ctrls.dram.rank0.pwrStateTime::ACT  46465448500                       # Time in different power states (Tick)
system.mem_ctrls.dram.rank0.pwrStateTime::ACT_PDN            0                       # Time in different power states (Tick)
system.mem_ctrls.dram.rank1.actEnergy        80846220                       # Energy for activate commands per rank (pJ) (Joule)
system.mem_ctrls.dram.rank1.preEnergy        42948015                       # Energy for precharge commands per rank (pJ) (Joule)
system.mem_ctrls.dram.rank1.readEnergy      211672440                       # Energy for read commands per rank (pJ) (Joule)
system.mem_ctrls.dram.rank1.writeEnergy     142250220                       # Energy for write commands per rank (pJ) (Joule)
system.mem_ctrls.dram.rank1.refreshEnergy 5311718880.000001                       # Energy for refresh commands per rank (pJ) (Joule)
system.mem_ctrls.dram.rank1.actBackEnergy  13337647170                       # Energy for active background per rank (pJ) (Joule)
system.mem_ctrls.dram.rank1.preBackEnergy  14609803200                       # Energy for precharge background per rank (pJ) (Joule)
system.mem_ctrls.dram.rank1.actPowerDownEnergy            0                       # Energy for active power-down per rank (pJ) (Joule)
system.mem_ctrls.dram.rank1.prePowerDownEnergy            0                       # Energy for precharge power-down per rank (pJ) (Joule)
system.mem_ctrls.dram.rank1.selfRefreshEnergy            0                       # Energy for self refresh per rank (pJ) (Joule)
system.mem_ctrls.dram.rank1.totalEnergy   33736886145                       # Total energy per rank (pJ) (Joule)
system.mem_ctrls.dram.rank1.averagePower   501.323889                       # Core power per rank (mW) (Watt)
system.mem_ctrls.dram.rank1.totalIdleTime            0                       # Total Idle time Per DRAM Rank (Tick)
system.mem_ctrls.dram.rank1.pwrStateTime::IDLE  37843346000                       # Time in different power states (Tick)
system.mem_ctrls.dram.rank1.pwrStateTime::REF   2246920000                       # Time in different power states (Tick)
system.mem_ctrls.dram.rank1.pwrStateTime::SREF            0                       # Time in different power states (Tick)
system.mem_ctrls.dram.rank1.pwrStateTime::PRE_PDN            0                       # Time in different power states (Tick)
system.mem_ctrls.dram.rank1.pwrStateTime::ACT  27205322500                       # Time in different power states (Tick)
system.mem_ctrls.dram.rank1.pwrStateTime::ACT_PDN            0                       # Time in different power states (Tick)
system.mem_ctrls.power_state.pwrStateResidencyTicks::UNDEFINED  67295588500                       # Cumulative time (in ticks) in various power states (Tick)
system.membus.transDist::ReadResp              373745                       # Transaction distribution (Count)
system.membus.transDist::WritebackDirty         52503                       # Transaction distribution (Count)
system.membus.transDist::WritebackClean        243793                       # Transaction distribution (Count)
system.membus.transDist::CleanEvict             88363                       # Transaction distribution (Count)
system.membus.transDist::ReadExReq              10182                       # Transaction distribution (Count)
system.membus.transDist::ReadExResp             10182                       # Transaction distribution (Count)
system.membus.transDist::ReadCleanReq          244294                       # Transaction distribution (Count)
system.membus.transDist::ReadSharedReq         129452                       # Transaction distribution (Count)
system.membus.transDist::InvalidateReq           2256                       # Transaction distribution (Count)
system.membus.pktCount_system.cpu.icache.mem_side_port::system.mem_ctrls.port       732380                       # Packet count per connected requestor and responder (Count)
system.membus.pktCount_system.cpu.dcache.mem_side_port::system.mem_ctrls.port       422390                       # Packet count per connected requestor and responder (Count)
system.membus.pktCount::total                 1154770                       # Packet count per connected requestor and responder (Count)
system.membus.pktSize_system.cpu.icache.mem_side_port::system.mem_ctrls.port     31237504                       # Cumulative packet size per connected requestor and responder (Byte)
system.membus.pktSize_system.cpu.dcache.mem_side_port::system.mem_ctrls.port     12296768                       # Cumulative packet size per connected requestor and responder (Byte)
system.membus.pktSize::total                 43534272                       # Cumulative packet size per connected requestor and responder (Byte)
system.membus.snoops                                0                       # Total snoops (Count)
system.membus.snoopTraffic                          0                       # Total snoop traffic (Byte)
system.membus.snoopFanout::samples             386184                       # Request fanout histogram (Count)
system.membus.snoopFanout::mean              0.000008                       # Request fanout histogram (Count)
system.membus.snoopFanout::stdev             0.002787                       # Request fanout histogram (Count)
system.membus.snoopFanout::underflows               0      0.00%      0.00% # Request fanout histogram (Count)
system.membus.snoopFanout::0                   386181    100.00%    100.00% # Request fanout histogram (Count)
system.membus.snoopFanout::1                        3      0.00%    100.00% # Request fanout histogram (Count)
system.membus.snoopFanout::2                        0      0.00%    100.00% # Request fanout histogram (Count)
system.membus.snoopFanout::overflows                0      0.00%    100.00% # Request fanout histogram (Count)
system.membus.snoopFanout::min_value                0                       # Request fanout histogram (Count)
system.membus.snoopFanout::max_value                1                       # Request fanout histogram (Count)
system.membus.snoopFanout::total               386184                       # Request fanout histogram (Count)
system.membus.power_state.pwrStateResidencyTicks::UNDEFINED  67295588500                       # Cumulative time (in ticks) in various power states (Tick)
system.membus.reqLayer0.occupancy          2013559750                       # Layer occupancy (ticks) (Tick)
system.membus.reqLayer0.utilization               0.0                       # Layer utilization (Ratio)
system.membus.respLayer1.occupancy         1222251500                       # Layer occupancy (ticks) (Tick)
system.membus.respLayer1.utilization              0.0                       # Layer utilization (Ratio)
system.membus.respLayer2.occupancy          738673000                       # Layer occupancy (ticks) (Tick)
system.membus.respLayer2.utilization              0.0                       # Layer utilization (Ratio)
system.membus.snoop_filter.totRequests         770844                       # Total number of requests made to the snoop filter. (Count)
system.membus.snoop_filter.hitSingleRequests       384661                       # Number of requests hitting in the snoop filter with a single holder of the requested data. (Count)
system.membus.snoop_filter.hitMultiRequests            2                       # Number of requests hitting in the snoop filter with multiple (>1) holders of the requested data. (Count)
system.membus.snoop_filter.totSnoops                0                       # Total number of snoops made to the snoop filter. (Count)
system.membus.snoop_filter.hitSingleSnoops            0                       # Number of snoops hitting in the snoop filter with a single holder of the requested data. (Count)
system.membus.snoop_filter.hitMultiSnoops            0                       # Number of snoops hitting in the snoop filter with multiple (>1) holders of the requested data. (Count)
system.voltage_domain.voltage                       1                       # Voltage in Volts (Volt)
system.workload.inst.arm                            0                       # number of arm instructions executed (Count)
system.workload.inst.quiesce                        0                       # number of quiesce instructions executed (Count)

---------- End Simulation Statistics   ----------
