
---------- Begin Simulation Statistics ----------
simSeconds                                   0.027639                       # Number of seconds simulated (Second)
simTicks                                  27638721500                       # Number of ticks simulated (Tick)
finalTick                                 27638721500                       # Number of ticks from beginning of simulation (restored from checkpoints and never reset) (Tick)
simFreq                                  1000000000000                       # The number of ticks per simulated second ((Tick/Second))
hostSeconds                                    156.01                       # Real time elapsed on the host (Second)
hostTickRate                                177154523                       # The number of ticks simulated per host second (ticks/s) ((Tick/Second))
hostMemory                                     680488                       # Number of bytes of host memory used (Byte)
simInsts                                    108418713                       # Number of instructions simulated (Count)
simOps                                      115650509                       # Number of ops (including micro ops) simulated (Count)
hostInstRate                                   694926                       # Simulator instruction rate (inst/s) ((Count/Second))
hostOpRate                                     741279                       # Simulator op (including micro ops) rate (op/s) ((Count/Second))
system.clk_domain.clock                          1000                       # Clock period in ticks (Tick)
system.cpu.numCycles                         55277444                       # Number of cpu cycles simulated (Cycle)
system.cpu.numWorkItemsStarted                      0                       # Number of work items this cpu started (Count)
system.cpu.numWorkItemsCompleted                    0                       # Number of work items this cpu completed (Count)
system.cpu.instsAdded                       122449301                       # Number of instructions added to the IQ (excludes non-spec) (Count)
system.cpu.nonSpecInstsAdded                    78993                       # Number of non-speculative instructions added to the IQ (Count)
system.cpu.instsIssued                      121995639                       # Number of instructions issued (Count)
system.cpu.squashedInstsIssued                 161329                       # Number of squashed instructions issued (Count)
system.cpu.squashedInstsExamined              6877784                       # Number of squashed instructions iterated over during squash; mainly for profiling (Count)
system.cpu.squashedOperandsExamined           4894588                       # Number of squashed operands that are examined and possibly removed from graph (Count)
system.cpu.squashedNonSpecRemoved                 169                       # Number of squashed non-spec instructions that were removed (Count)
system.cpu.numIssuedDist::samples            52482455                       # Number of insts issued each cycle (Count)
system.cpu.numIssuedDist::mean               2.324503                       # Number of insts issued each cycle (Count)
system.cpu.numIssuedDist::stdev              2.017880                       # Number of insts issued each cycle (Count)
system.cpu.numIssuedDist::underflows                0      0.00%      0.00% # Number of insts issued each cycle (Count)
system.cpu.numIssuedDist::0                  14870707     28.33%     28.33% # Number of insts issued each cycle (Count)
system.cpu.numIssuedDist::1                   4786611      9.12%     37.46% # Number of insts issued each cycle (Count)
system.cpu.numIssuedDist::2                   9926099     18.91%     56.37% # Number of insts issued each cycle (Count)
system.cpu.numIssuedDist::3                   8250945     15.72%     72.09% # Number of insts issued each cycle (Count)
system.cpu.numIssuedDist::4                   7093591     13.52%     85.61% # Number of insts issued each cycle (Count)
system.cpu.numIssuedDist::5                   3084629      5.88%     91.48% # Number of insts issued each cycle (Count)
system.cpu.numIssuedDist::6                   3066176      5.84%     97.33% # Number of insts issued each cycle (Count)
system.cpu.numIssuedDist::7                    820146      1.56%     98.89% # Number of insts issued each cycle (Count)
system.cpu.numIssuedDist::8                    583551      1.11%    100.00% # Number of insts issued each cycle (Count)
system.cpu.numIssuedDist::overflows                 0      0.00%    100.00% # Number of insts issued each cycle (Count)
system.cpu.numIssuedDist::min_value                 0                       # Number of insts issued each cycle (Count)
system.cpu.numIssuedDist::max_value                 8                       # Number of insts issued each cycle (Count)
system.cpu.numIssuedDist::total              52482455                       # Number of insts issued each cycle (Count)
system.cpu.statFuBusy::No_OpClass                   0      0.00%      0.00% # attempts to use FU when none available (Count)
system.cpu.statFuBusy::IntAlu                  235341     16.19%     16.19% # attempts to use FU when none available (Count)
system.cpu.statFuBusy::IntMult                 194031     13.34%     29.53% # attempts to use FU when none available (Count)
system.cpu.statFuBusy::IntDiv                       0      0.00%     29.53% # attempts to use FU when none available (Count)
system.cpu.statFuBusy::FloatAdd                     0      0.00%     29.53% # attempts to use FU when none available (Count)
system.cpu.statFuBusy::FloatCmp                     0      0.00%     29.53% # attempts to use FU when none available (Count)
system.cpu.statFuBusy::FloatCvt                     0      0.00%     29.53% # attempts to use FU when none available (Count)
system.cpu.statFuBusy::FloatMult                    0      0.00%     29.53% # attempts to use FU when none available (Count)
system.cpu.statFuBusy::FloatMultAcc                 0      0.00%     29.53% # attempts to use FU when none available (Count)
system.cpu.statFuBusy::FloatDiv                     0      0.00%     29.53% # attempts to use FU when none available (Count)
system.cpu.statFuBusy::FloatMisc                    0      0.00%     29.53% # attempts to use FU when none available (Count)
system.cpu.statFuBusy::FloatSqrt                    0      0.00%     29.53% # attempts to use FU when none available (Count)
system.cpu.statFuBusy::SimdAdd                      0      0.00%     29.53% # attempts to use FU when none available (Count)
system.cpu.statFuBusy::SimdAddAcc                   0      0.00%     29.53% # attempts to use FU when none available (Count)
system.cpu.statFuBusy::SimdAlu                      1      0.00%     29.53% # attempts to use FU when none available (Count)
system.cpu.statFuBusy::SimdCmp                      2      0.00%     29.53% # attempts to use FU when none available (Count)
system.cpu.statFuBusy::SimdCvt                      0      0.00%     29.53% # attempts to use FU when none available (Count)
system.cpu.statFuBusy::SimdMisc                     0      0.00%     29.53% # attempts to use FU when none available (Count)
system.cpu.statFuBusy::SimdMult                     0      0.00%     29.53% # attempts to use FU when none available (Count)
system.cpu.statFuBusy::SimdMultAcc                  0      0.00%     29.53% # attempts to use FU when none available (Count)
system.cpu.statFuBusy::SimdShift                    0      0.00%     29.53% # attempts to use FU when none available (Count)
system.cpu.statFuBusy::SimdShiftAcc                 0      0.00%     29.53% # attempts to use FU when none available (Count)
system.cpu.statFuBusy::SimdDiv                      0      0.00%     29.53% # attempts to use FU when none available (Count)
system.cpu.statFuBusy::SimdSqrt                     0      0.00%     29.53% # attempts to use FU when none available (Count)
system.cpu.statFuBusy::SimdFloatAdd                 0      0.00%     29.53% # attempts to use FU when none available (Count)
system.cpu.statFuBusy::SimdFloatAlu                 0      0.00%     29.53% # attempts to use FU when none available (Count)
system.cpu.statFuBusy::SimdFloatCmp                 0      0.00%     29.53% # attempts to use FU when none available (Count)
system.cpu.statFuBusy::SimdFloatCvt                 0      0.00%     29.53% # attempts to use FU when none available (Count)
system.cpu.statFuBusy::SimdFloatDiv                 0      0.00%     29.53% # attempts to use FU when none available (Count)
system.cpu.statFuBusy::SimdFloatMisc                0      0.00%     29.53% # attempts to use FU when none available (Count)
system.cpu.statFuBusy::SimdFloatMult                0      0.00%     29.53% # attempts to use FU when none available (Count)
system.cpu.statFuBusy::SimdFloatMultAcc             0      0.00%     29.53% # attempts to use FU when none available (Count)
system.cpu.statFuBusy::SimdFloatSqrt                0      0.00%     29.53% # attempts to use FU when none available (Count)
system.cpu.statFuBusy::SimdReduceAdd                0      0.00%     29.53% # attempts to use FU when none available (Count)
system.cpu.statFuBusy::SimdReduceAlu                0      0.00%     29.53% # attempts to use FU when none available (Count)
system.cpu.statFuBusy::SimdReduceCmp                0      0.00%     29.53% # attempts to use FU when none available (Count)
system.cpu.statFuBusy::SimdFloatReduceAdd            0      0.00%     29.53% # attempts to use FU when none available (Count)
system.cpu.statFuBusy::SimdFloatReduceCmp            0      0.00%     29.53% # attempts to use FU when none available (Count)
system.cpu.statFuBusy::SimdAes                      0      0.00%     29.53% # attempts to use FU when none available (Count)
system.cpu.statFuBusy::SimdAesMix                   0      0.00%     29.53% # attempts to use FU when none available (Count)
system.cpu.statFuBusy::SimdSha1Hash                 0      0.00%     29.53% # attempts to use FU when none available (Count)
system.cpu.statFuBusy::SimdSha1Hash2                0      0.00%     29.53% # attempts to use FU when none available (Count)
system.cpu.statFuBusy::SimdSha256Hash               0      0.00%     29.53% # attempts to use FU when none available (Count)
system.cpu.statFuBusy::SimdSha256Hash2              0      0.00%     29.53% # attempts to use FU when none available (Count)
system.cpu.statFuBusy::SimdShaSigma2                0      0.00%     29.53% # attempts to use FU when none available (Count)
system.cpu.statFuBusy::SimdShaSigma3                0      0.00%     29.53% # attempts to use FU when none available (Count)
system.cpu.statFuBusy::SimdPredAlu                  0      0.00%     29.53% # attempts to use FU when none available (Count)
system.cpu.statFuBusy::MemRead                 577947     39.75%     69.28% # attempts to use FU when none available (Count)
system.cpu.statFuBusy::MemWrite                446650     30.72%    100.00% # attempts to use FU when none available (Count)
system.cpu.statFuBusy::FloatMemRead                 0      0.00%    100.00% # attempts to use FU when none available (Count)
system.cpu.statFuBusy::FloatMemWrite                0      0.00%    100.00% # attempts to use FU when none available (Count)
system.cpu.statFuBusy::IprAccess                    0      0.00%    100.00% # attempts to use FU when none available (Count)
system.cpu.statFuBusy::InstPrefetch                 0      0.00%    100.00% # attempts to use FU when none available (Count)
system.cpu.statIssuedInstType_0::No_OpClass        72169      0.06%      0.06% # Number of instructions issued per FU type, per thread (Count)
system.cpu.statIssuedInstType_0::IntAlu      76870978     63.01%     63.07% # Number of instructions issued per FU type, per thread (Count)
system.cpu.statIssuedInstType_0::IntMult      1260603      1.03%     64.10% # Number of instructions issued per FU type, per thread (Count)
system.cpu.statIssuedInstType_0::IntDiv        235182      0.19%     64.30% # Number of instructions issued per FU type, per thread (Count)
system.cpu.statIssuedInstType_0::FloatAdd        24289      0.02%     64.32% # Number of instructions issued per FU type, per thread (Count)
system.cpu.statIssuedInstType_0::FloatCmp        32768      0.03%     64.34% # Number of instructions issued per FU type, per thread (Count)
system.cpu.statIssuedInstType_0::FloatCvt            0      0.00%     64.34% # Number of instructions issued per FU type, per thread (Count)
system.cpu.statIssuedInstType_0::FloatMult        21230      0.02%     64.36% # Number of instructions issued per FU type, per thread (Count)
system.cpu.statIssuedInstType_0::FloatMultAcc            0      0.00%     64.36% # Number of instructions issued per FU type, per thread (Count)
system.cpu.statIssuedInstType_0::FloatDiv            0      0.00%     64.36% # Number of instructions issued per FU type, per thread (Count)
system.cpu.statIssuedInstType_0::FloatMisc        62264      0.05%     64.41% # Number of instructions issued per FU type, per thread (Count)
system.cpu.statIssuedInstType_0::FloatSqrt            0      0.00%     64.41% # Number of instructions issued per FU type, per thread (Count)
system.cpu.statIssuedInstType_0::SimdAdd        65572      0.05%     64.47% # Number of instructions issued per FU type, per thread (Count)
system.cpu.statIssuedInstType_0::SimdAddAcc            0      0.00%     64.47% # Number of instructions issued per FU type, per thread (Count)
system.cpu.statIssuedInstType_0::SimdAlu       131130      0.11%     64.57% # Number of instructions issued per FU type, per thread (Count)
system.cpu.statIssuedInstType_0::SimdCmp       131124      0.11%     64.68% # Number of instructions issued per FU type, per thread (Count)
system.cpu.statIssuedInstType_0::SimdCvt            0      0.00%     64.68% # Number of instructions issued per FU type, per thread (Count)
system.cpu.statIssuedInstType_0::SimdMisc        98350      0.08%     64.76% # Number of instructions issued per FU type, per thread (Count)
system.cpu.statIssuedInstType_0::SimdMult            0      0.00%     64.76% # Number of instructions issued per FU type, per thread (Count)
system.cpu.statIssuedInstType_0::SimdMultAcc            0      0.00%     64.76% # Number of instructions issued per FU type, per thread (Count)
system.cpu.statIssuedInstType_0::SimdShift            0      0.00%     64.76% # Number of instructions issued per FU type, per thread (Count)
system.cpu.statIssuedInstType_0::SimdShiftAcc            0      0.00%     64.76% # Number of instructions issued per FU type, per thread (Count)
system.cpu.statIssuedInstType_0::SimdDiv            0      0.00%     64.76% # Number of instructions issued per FU type, per thread (Count)
system.cpu.statIssuedInstType_0::SimdSqrt            0      0.00%     64.76% # Number of instructions issued per FU type, per thread (Count)
system.cpu.statIssuedInstType_0::SimdFloatAdd            0      0.00%     64.76% # Number of instructions issued per FU type, per thread (Count)
system.cpu.statIssuedInstType_0::SimdFloatAlu            0      0.00%     64.76% # Number of instructions issued per FU type, per thread (Count)
system.cpu.statIssuedInstType_0::SimdFloatCmp            0      0.00%     64.76% # Number of instructions issued per FU type, per thread (Count)
system.cpu.statIssuedInstType_0::SimdFloatCvt            0      0.00%     64.76% # Number of instructions issued per FU type, per thread (Count)
system.cpu.statIssuedInstType_0::SimdFloatDiv            0      0.00%     64.76% # Number of instructions issued per FU type, per thread (Count)
system.cpu.statIssuedInstType_0::SimdFloatMisc            0      0.00%     64.76% # Number of instructions issued per FU type, per thread (Count)
system.cpu.statIssuedInstType_0::SimdFloatMult            0      0.00%     64.76% # Number of instructions issued per FU type, per thread (Count)
system.cpu.statIssuedInstType_0::SimdFloatMultAcc            0      0.00%     64.76% # Number of instructions issued per FU type, per thread (Count)
system.cpu.statIssuedInstType_0::SimdFloatSqrt            0      0.00%     64.76% # Number of instructions issued per FU type, per thread (Count)
system.cpu.statIssuedInstType_0::SimdReduceAdd            0      0.00%     64.76% # Number of instructions issued per FU type, per thread (Count)
system.cpu.statIssuedInstType_0::SimdReduceAlu            0      0.00%     64.76% # Number of instructions issued per FU type, per thread (Count)
system.cpu.statIssuedInstType_0::SimdReduceCmp            0      0.00%     64.76% # Number of instructions issued per FU type, per thread (Count)
system.cpu.statIssuedInstType_0::SimdFloatReduceAdd            0      0.00%     64.76% # Number of instructions issued per FU type, per thread (Count)
system.cpu.statIssuedInstType_0::SimdFloatReduceCmp            0      0.00%     64.76% # Number of instructions issued per FU type, per thread (Count)
system.cpu.statIssuedInstType_0::SimdAes            0      0.00%     64.76% # Number of instructions issued per FU type, per thread (Count)
system.cpu.statIssuedInstType_0::SimdAesMix            0      0.00%     64.76% # Number of instructions issued per FU type, per thread (Count)
system.cpu.statIssuedInstType_0::SimdSha1Hash            0      0.00%     64.76% # Number of instructions issued per FU type, per thread (Count)
system.cpu.statIssuedInstType_0::SimdSha1Hash2            0      0.00%     64.76% # Number of instructions issued per FU type, per thread (Count)
system.cpu.statIssuedInstType_0::SimdSha256Hash            0      0.00%     64.76% # Number of instructions issued per FU type, per thread (Count)
system.cpu.statIssuedInstType_0::SimdSha256Hash2            0      0.00%     64.76% # Number of instructions issued per FU type, per thread (Count)
system.cpu.statIssuedInstType_0::SimdShaSigma2            0      0.00%     64.76% # Number of instructions issued per FU type, per thread (Count)
system.cpu.statIssuedInstType_0::SimdShaSigma3            0      0.00%     64.76% # Number of instructions issued per FU type, per thread (Count)
system.cpu.statIssuedInstType_0::SimdPredAlu            0      0.00%     64.76% # Number of instructions issued per FU type, per thread (Count)
system.cpu.statIssuedInstType_0::MemRead     31270595     25.63%     90.39% # Number of instructions issued per FU type, per thread (Count)
system.cpu.statIssuedInstType_0::MemWrite     11719385      9.61%    100.00% # Number of instructions issued per FU type, per thread (Count)
system.cpu.statIssuedInstType_0::FloatMemRead            0      0.00%    100.00% # Number of instructions issued per FU type, per thread (Count)
system.cpu.statIssuedInstType_0::FloatMemWrite            0      0.00%    100.00% # Number of instructions issued per FU type, per thread (Count)
system.cpu.statIssuedInstType_0::IprAccess            0      0.00%    100.00% # Number of instructions issued per FU type, per thread (Count)
system.cpu.statIssuedInstType_0::InstPrefetch            0      0.00%    100.00% # Number of instructions issued per FU type, per thread (Count)
system.cpu.statIssuedInstType_0::total      121995639                       # Number of instructions issued per FU type, per thread (Count)
system.cpu.issueRate                         2.206970                       # Inst issue rate ((Count/Cycle))
system.cpu.fuBusy                             1453972                       # FU busy when requested (Count)
system.cpu.fuBusyRate                        0.011918                       # FU busy rate (busy events/executed inst) ((Count/Count))
system.cpu.intInstQueueReads                295234566                       # Number of integer instruction queue reads (Count)
system.cpu.intInstQueueWrites               127651747                       # Number of integer instruction queue writes (Count)
system.cpu.intInstQueueWakeupAccesses       118475435                       # Number of integer instruction queue wakeup accesses (Count)
system.cpu.fpInstQueueReads                         0                       # Number of floating instruction queue reads (Count)
system.cpu.fpInstQueueWrites                        0                       # Number of floating instruction queue writes (Count)
system.cpu.fpInstQueueWakeupAccesses                0                       # Number of floating instruction queue wakeup accesses (Count)
system.cpu.vecInstQueueReads                  2854468                       # Number of vector instruction queue reads (Count)
system.cpu.vecInstQueueWrites                 1784531                       # Number of vector instruction queue writes (Count)
system.cpu.vecInstQueueWakeupAccesses         1254112                       # Number of vector instruction queue wakeup accesses (Count)
system.cpu.intAluAccesses                   121977004                       # Number of integer alu accesses (Count)
system.cpu.fpAluAccesses                            0                       # Number of floating point alu accesses (Count)
system.cpu.vecAluAccesses                     1400438                       # Number of vector alu accesses (Count)
system.cpu.numInsts                         121373811                       # Number of executed instructions (Count)
system.cpu.numLoadInsts                      31095810                       # Number of load instructions executed (Count)
system.cpu.numSquashedInsts                    621828                       # Number of squashed instructions skipped in execute (Count)
system.cpu.numSwp                                   0                       # Number of swp insts executed (Count)
system.cpu.numNop                               58425                       # Number of nop insts executed (Count)
system.cpu.numRefs                           42677829                       # Number of memory reference insts executed (Count)
system.cpu.numBranches                       18951482                       # Number of branches executed (Count)
system.cpu.numStoreInsts                     11582019                       # Number of stores executed (Count)
system.cpu.numRate                           2.195720                       # Inst execution rate ((Count/Cycle))
system.cpu.timesIdled                          139878                       # Number of times that the entire CPU went into an idle state and unscheduled itself (Count)
system.cpu.idleCycles                         2794989                       # Total number of cycles that the CPU has spent unscheduled due to idling (Cycle)
system.cpu.committedInsts                   108418713                       # Number of Instructions Simulated (Count)
system.cpu.committedOps                     115650509                       # Number of Ops (including micro ops) Simulated (Count)
system.cpu.cpi                               0.509852                       # CPI: Cycles Per Instruction ((Cycle/Count))
system.cpu.totalCpi                          0.509852                       # CPI: Total CPI of All Threads ((Cycle/Count))
system.cpu.ipc                               1.961355                       # IPC: Instructions Per Cycle ((Count/Cycle))
system.cpu.totalIpc                          1.961355                       # IPC: Total IPC of All Threads ((Count/Cycle))
system.cpu.intRegfileReads                  142330119                       # Number of integer regfile reads (Count)
system.cpu.intRegfileWrites                  91689114                       # Number of integer regfile writes (Count)
system.cpu.vecRegfileReads                    1389370                       # number of vector regfile reads (Count)
system.cpu.vecRegfileWrites                    727298                       # number of vector regfile writes (Count)
system.cpu.ccRegfileReads                    34677543                       # number of cc regfile reads (Count)
system.cpu.ccRegfileWrites                   34474094                       # number of cc regfile writes (Count)
system.cpu.miscRegfileReads                 234759138                       # number of misc regfile reads (Count)
system.cpu.miscRegfileWrites                   173251                       # number of misc regfile writes (Count)
system.cpu.MemDepUnit__0.insertedLoads       30136633                       # Number of loads inserted to the mem dependence unit. (Count)
system.cpu.MemDepUnit__0.insertedStores      12198433                       # Number of stores inserted to the mem dependence unit. (Count)
system.cpu.MemDepUnit__0.conflictingLoads      4735052                       # Number of conflicting loads. (Count)
system.cpu.MemDepUnit__0.conflictingStores       941733                       # Number of conflicting stores. (Count)
system.cpu.MemDepUnit__1.insertedLoads              0                       # Number of loads inserted to the mem dependence unit. (Count)
system.cpu.MemDepUnit__1.insertedStores             0                       # Number of stores inserted to the mem dependence unit. (Count)
system.cpu.MemDepUnit__1.conflictingLoads            0                       # Number of conflicting loads. (Count)
system.cpu.MemDepUnit__1.conflictingStores            0                       # Number of conflicting stores. (Count)
system.cpu.MemDepUnit__2.insertedLoads              0                       # Number of loads inserted to the mem dependence unit. (Count)
system.cpu.MemDepUnit__2.insertedStores             0                       # Number of stores inserted to the mem dependence unit. (Count)
system.cpu.MemDepUnit__2.conflictingLoads            0                       # Number of conflicting loads. (Count)
system.cpu.MemDepUnit__2.conflictingStores            0                       # Number of conflicting stores. (Count)
system.cpu.MemDepUnit__3.insertedLoads              0                       # Number of loads inserted to the mem dependence unit. (Count)
system.cpu.MemDepUnit__3.insertedStores             0                       # Number of stores inserted to the mem dependence unit. (Count)
system.cpu.MemDepUnit__3.conflictingLoads            0                       # Number of conflicting loads. (Count)
system.cpu.MemDepUnit__3.conflictingStores            0                       # Number of conflicting stores. (Count)
system.cpu.branchPred.lookups                20232118                       # Number of BP lookups (Count)
system.cpu.branchPred.condPredicted          14052755                       # Number of conditional branches predicted (Count)
system.cpu.branchPred.condIncorrect            266311                       # Number of conditional branches incorrect (Count)
system.cpu.branchPred.BTBLookups             11621230                       # Number of BTB lookups (Count)
system.cpu.branchPred.BTBHits                11516196                       # Number of BTB hits (Count)
system.cpu.branchPred.BTBHitRatio            0.990962                       # BTB Hit Ratio (Ratio)
system.cpu.branchPred.RASUsed                 1013589                       # Number of times the RAS was used to get a target. (Count)
system.cpu.branchPred.RASIncorrect                 26                       # Number of incorrect RAS predictions. (Count)
system.cpu.branchPred.indirectLookups          194593                       # Number of indirect predictor lookups. (Count)
system.cpu.branchPred.indirectHits             192579                       # Number of indirect target hits. (Count)
system.cpu.branchPred.indirectMisses             2014                       # Number of indirect misses. (Count)
system.cpu.branchPred.indirectMispredicted          198                       # Number of mispredicted indirect branches. (Count)
system.cpu.commit.commitSquashedInsts         6885695                       # The number of squashed insts skipped by commit (Count)
system.cpu.commit.commitNonSpecStalls           78824                       # The number of times commit has been forced to stall to communicate backwards (Count)
system.cpu.commit.branchMispredicts            216810                       # The number of times a branch was mispredicted (Count)
system.cpu.commit.numCommittedDist::samples     51501735                       # Number of insts commited each cycle (Count)
system.cpu.commit.numCommittedDist::mean     2.246546                       # Number of insts commited each cycle (Count)
system.cpu.commit.numCommittedDist::stdev     2.897961                       # Number of insts commited each cycle (Count)
system.cpu.commit.numCommittedDist::underflows            0      0.00%      0.00% # Number of insts commited each cycle (Count)
system.cpu.commit.numCommittedDist::0        22034229     42.78%     42.78% # Number of insts commited each cycle (Count)
system.cpu.commit.numCommittedDist::1        10300535     20.00%     62.78% # Number of insts commited each cycle (Count)
system.cpu.commit.numCommittedDist::2         3217859      6.25%     69.03% # Number of insts commited each cycle (Count)
system.cpu.commit.numCommittedDist::3         1513954      2.94%     71.97% # Number of insts commited each cycle (Count)
system.cpu.commit.numCommittedDist::4         3235880      6.28%     78.25% # Number of insts commited each cycle (Count)
system.cpu.commit.numCommittedDist::5          451566      0.88%     79.13% # Number of insts commited each cycle (Count)
system.cpu.commit.numCommittedDist::6         3068178      5.96%     85.09% # Number of insts commited each cycle (Count)
system.cpu.commit.numCommittedDist::7          623792      1.21%     86.30% # Number of insts commited each cycle (Count)
system.cpu.commit.numCommittedDist::8         7055742     13.70%    100.00% # Number of insts commited each cycle (Count)
system.cpu.commit.numCommittedDist::overflows            0      0.00%    100.00% # Number of insts commited each cycle (Count)
system.cpu.commit.numCommittedDist::min_value            0                       # Number of insts commited each cycle (Count)
system.cpu.commit.numCommittedDist::max_value            8                       # Number of insts commited each cycle (Count)
system.cpu.commit.numCommittedDist::total     51501735                       # Number of insts commited each cycle (Count)
system.cpu.commit.instsCommitted            108469217                       # Number of instructions committed (Count)
system.cpu.commit.opsCommitted              115701013                       # Number of ops (including micro ops) committed (Count)
system.cpu.commit.memRefs                    39842171                       # Number of memory references committed (Count)
system.cpu.commit.loads                      28939064                       # Number of loads committed (Count)
system.cpu.commit.amos                          39378                       # Number of atomic instructions committed (Count)
system.cpu.commit.membars                       39388                       # Number of memory barriers committed (Count)
system.cpu.commit.branches                   18377907                       # Number of branches committed (Count)
system.cpu.commit.vectorInstructions          1129031                       # Number of committed Vector instructions. (Count)
system.cpu.commit.floating                          0                       # Number of committed floating point instructions. (Count)
system.cpu.commit.integer                   101239066                       # Number of committed integer instructions. (Count)
system.cpu.commit.functionCalls                929063                       # Number of function calls committed. (Count)
system.cpu.commit.committedInstType_0::No_OpClass        72161      0.06%      0.06% # Class of committed instruction (Count)
system.cpu.commit.committedInstType_0::IntAlu     73729314     63.72%     63.79% # Class of committed instruction (Count)
system.cpu.commit.committedInstType_0::IntMult      1259307      1.09%     64.87% # Class of committed instruction (Count)
system.cpu.commit.committedInstType_0::IntDiv       234940      0.20%     65.08% # Class of committed instruction (Count)
system.cpu.commit.committedInstType_0::FloatAdd        24289      0.02%     65.10% # Class of committed instruction (Count)
system.cpu.commit.committedInstType_0::FloatCmp        32768      0.03%     65.13% # Class of committed instruction (Count)
system.cpu.commit.committedInstType_0::FloatCvt            0      0.00%     65.13% # Class of committed instruction (Count)
system.cpu.commit.committedInstType_0::FloatMult        21013      0.02%     65.15% # Class of committed instruction (Count)
system.cpu.commit.committedInstType_0::FloatMultAcc            0      0.00%     65.15% # Class of committed instruction (Count)
system.cpu.commit.committedInstType_0::FloatDiv            0      0.00%     65.15% # Class of committed instruction (Count)
system.cpu.commit.committedInstType_0::FloatMisc        58980      0.05%     65.20% # Class of committed instruction (Count)
system.cpu.commit.committedInstType_0::FloatSqrt            0      0.00%     65.20% # Class of committed instruction (Count)
system.cpu.commit.committedInstType_0::SimdAdd        65556      0.06%     65.25% # Class of committed instruction (Count)
system.cpu.commit.committedInstType_0::SimdAddAcc            0      0.00%     65.25% # Class of committed instruction (Count)
system.cpu.commit.committedInstType_0::SimdAlu       131098      0.11%     65.37% # Class of committed instruction (Count)
system.cpu.commit.committedInstType_0::SimdCmp       131092      0.11%     65.48% # Class of committed instruction (Count)
system.cpu.commit.committedInstType_0::SimdCvt            0      0.00%     65.48% # Class of committed instruction (Count)
system.cpu.commit.committedInstType_0::SimdMisc        98324      0.08%     65.56% # Class of committed instruction (Count)
system.cpu.commit.committedInstType_0::SimdMult            0      0.00%     65.56% # Class of committed instruction (Count)
system.cpu.commit.committedInstType_0::SimdMultAcc            0      0.00%     65.56% # Class of committed instruction (Count)
system.cpu.commit.committedInstType_0::SimdShift            0      0.00%     65.56% # Class of committed instruction (Count)
system.cpu.commit.committedInstType_0::SimdShiftAcc            0      0.00%     65.56% # Class of committed instruction (Count)
system.cpu.commit.committedInstType_0::SimdDiv            0      0.00%     65.56% # Class of committed instruction (Count)
system.cpu.commit.committedInstType_0::SimdSqrt            0      0.00%     65.56% # Class of committed instruction (Count)
system.cpu.commit.committedInstType_0::SimdFloatAdd            0      0.00%     65.56% # Class of committed instruction (Count)
system.cpu.commit.committedInstType_0::SimdFloatAlu            0      0.00%     65.56% # Class of committed instruction (Count)
system.cpu.commit.committedInstType_0::SimdFloatCmp            0      0.00%     65.56% # Class of committed instruction (Count)
system.cpu.commit.committedInstType_0::SimdFloatCvt            0      0.00%     65.56% # Class of committed instruction (Count)
system.cpu.commit.committedInstType_0::SimdFloatDiv            0      0.00%     65.56% # Class of committed instruction (Count)
system.cpu.commit.committedInstType_0::SimdFloatMisc            0      0.00%     65.56% # Class of committed instruction (Count)
system.cpu.commit.committedInstType_0::SimdFloatMult            0      0.00%     65.56% # Class of committed instruction (Count)
system.cpu.commit.committedInstType_0::SimdFloatMultAcc            0      0.00%     65.56% # Class of committed instruction (Count)
system.cpu.commit.committedInstType_0::SimdFloatSqrt            0      0.00%     65.56% # Class of committed instruction (Count)
system.cpu.commit.committedInstType_0::SimdReduceAdd            0      0.00%     65.56% # Class of committed instruction (Count)
system.cpu.commit.committedInstType_0::SimdReduceAlu            0      0.00%     65.56% # Class of committed instruction (Count)
system.cpu.commit.committedInstType_0::SimdReduceCmp            0      0.00%     65.56% # Class of committed instruction (Count)
system.cpu.commit.committedInstType_0::SimdFloatReduceAdd            0      0.00%     65.56% # Class of committed instruction (Count)
system.cpu.commit.committedInstType_0::SimdFloatReduceCmp            0      0.00%     65.56% # Class of committed instruction (Count)
system.cpu.commit.committedInstType_0::SimdAes            0      0.00%     65.56% # Class of committed instruction (Count)
system.cpu.commit.committedInstType_0::SimdAesMix            0      0.00%     65.56% # Class of committed instruction (Count)
system.cpu.commit.committedInstType_0::SimdSha1Hash            0      0.00%     65.56% # Class of committed instruction (Count)
system.cpu.commit.committedInstType_0::SimdSha1Hash2            0      0.00%     65.56% # Class of committed instruction (Count)
system.cpu.commit.committedInstType_0::SimdSha256Hash            0      0.00%     65.56% # Class of committed instruction (Count)
system.cpu.commit.committedInstType_0::SimdSha256Hash2            0      0.00%     65.56% # Class of committed instruction (Count)
system.cpu.commit.committedInstType_0::SimdShaSigma2            0      0.00%     65.56% # Class of committed instruction (Count)
system.cpu.commit.committedInstType_0::SimdShaSigma3            0      0.00%     65.56% # Class of committed instruction (Count)
system.cpu.commit.committedInstType_0::SimdPredAlu            0      0.00%     65.56% # Class of committed instruction (Count)
system.cpu.commit.committedInstType_0::MemRead     28939064     25.01%     90.58% # Class of committed instruction (Count)
system.cpu.commit.committedInstType_0::MemWrite     10903107      9.42%    100.00% # Class of committed instruction (Count)
system.cpu.commit.committedInstType_0::FloatMemRead            0      0.00%    100.00% # Class of committed instruction (Count)
system.cpu.commit.committedInstType_0::FloatMemWrite            0      0.00%    100.00% # Class of committed instruction (Count)
system.cpu.commit.committedInstType_0::IprAccess            0      0.00%    100.00% # Class of committed instruction (Count)
system.cpu.commit.committedInstType_0::InstPrefetch            0      0.00%    100.00% # Class of committed instruction (Count)
system.cpu.commit.committedInstType_0::total    115701013                       # Class of committed instruction (Count)
system.cpu.commit.commitEligibleSamples       7055742                       # number cycles where commit BW limit reached (Cycle)
system.cpu.dcache.demandHits::cpu.data       31073756                       # number of demand (read+write) hits (Count)
system.cpu.dcache.demandHits::total          31073756                       # number of demand (read+write) hits (Count)
system.cpu.dcache.overallHits::cpu.data      31150844                       # number of overall hits (Count)
system.cpu.dcache.overallHits::total         31150844                       # number of overall hits (Count)
system.cpu.dcache.demandMisses::cpu.data       120644                       # number of demand (read+write) misses (Count)
system.cpu.dcache.demandMisses::total          120644                       # number of demand (read+write) misses (Count)
system.cpu.dcache.overallMisses::cpu.data       120651                       # number of overall misses (Count)
system.cpu.dcache.overallMisses::total         120651                       # number of overall misses (Count)
system.cpu.dcache.demandMissLatency::cpu.data   8611901050                       # number of demand (read+write) miss ticks (Tick)
system.cpu.dcache.demandMissLatency::total   8611901050                       # number of demand (read+write) miss ticks (Tick)
system.cpu.dcache.overallMissLatency::cpu.data   8611901050                       # number of overall miss ticks (Tick)
system.cpu.dcache.overallMissLatency::total   8611901050                       # number of overall miss ticks (Tick)
system.cpu.dcache.demandAccesses::cpu.data     31194400                       # number of demand (read+write) accesses (Count)
system.cpu.dcache.demandAccesses::total      31194400                       # number of demand (read+write) accesses (Count)
system.cpu.dcache.overallAccesses::cpu.data     31271495                       # number of overall (read+write) accesses (Count)
system.cpu.dcache.overallAccesses::total     31271495                       # number of overall (read+write) accesses (Count)
system.cpu.dcache.demandMissRate::cpu.data     0.003867                       # miss rate for demand accesses (Ratio)
system.cpu.dcache.demandMissRate::total      0.003867                       # miss rate for demand accesses (Ratio)
system.cpu.dcache.overallMissRate::cpu.data     0.003858                       # miss rate for overall accesses (Ratio)
system.cpu.dcache.overallMissRate::total     0.003858                       # miss rate for overall accesses (Ratio)
system.cpu.dcache.demandAvgMissLatency::cpu.data 71382.754633                       # average overall miss latency ((Cycle/Count))
system.cpu.dcache.demandAvgMissLatency::total 71382.754633                       # average overall miss latency ((Cycle/Count))
system.cpu.dcache.overallAvgMissLatency::cpu.data 71378.613107                       # average overall miss latency ((Cycle/Count))
system.cpu.dcache.overallAvgMissLatency::total 71378.613107                       # average overall miss latency ((Cycle/Count))
system.cpu.dcache.blockedCycles::no_mshrs       734368                       # number of cycles access was blocked (Cycle)
system.cpu.dcache.blockedCycles::no_targets            0                       # number of cycles access was blocked (Cycle)
system.cpu.dcache.blockedCauses::no_mshrs        17596                       # number of times access was blocked (Count)
system.cpu.dcache.blockedCauses::no_targets            0                       # number of times access was blocked (Count)
system.cpu.dcache.avgBlocked::no_mshrs      41.734940                       # average number of cycles each access was blocked ((Cycle/Count))
system.cpu.dcache.avgBlocked::no_targets          nan                       # average number of cycles each access was blocked ((Cycle/Count))
system.cpu.dcache.writebacks::writebacks        22514                       # number of writebacks (Count)
system.cpu.dcache.writebacks::total             22514                       # number of writebacks (Count)
system.cpu.dcache.demandMshrHits::cpu.data        86527                       # number of demand (read+write) MSHR hits (Count)
system.cpu.dcache.demandMshrHits::total         86527                       # number of demand (read+write) MSHR hits (Count)
system.cpu.dcache.overallMshrHits::cpu.data        86527                       # number of overall MSHR hits (Count)
system.cpu.dcache.overallMshrHits::total        86527                       # number of overall MSHR hits (Count)
system.cpu.dcache.demandMshrMisses::cpu.data        34117                       # number of demand (read+write) MSHR misses (Count)
system.cpu.dcache.demandMshrMisses::total        34117                       # number of demand (read+write) MSHR misses (Count)
system.cpu.dcache.overallMshrMisses::cpu.data        34124                       # number of overall MSHR misses (Count)
system.cpu.dcache.overallMshrMisses::total        34124                       # number of overall MSHR misses (Count)
system.cpu.dcache.demandMshrMissLatency::cpu.data   2550945355                       # number of demand (read+write) MSHR miss ticks (Tick)
system.cpu.dcache.demandMshrMissLatency::total   2550945355                       # number of demand (read+write) MSHR miss ticks (Tick)
system.cpu.dcache.overallMshrMissLatency::cpu.data   2551478355                       # number of overall MSHR miss ticks (Tick)
system.cpu.dcache.overallMshrMissLatency::total   2551478355                       # number of overall MSHR miss ticks (Tick)
system.cpu.dcache.demandMshrMissRate::cpu.data     0.001094                       # mshr miss ratio for demand accesses (Ratio)
system.cpu.dcache.demandMshrMissRate::total     0.001094                       # mshr miss ratio for demand accesses (Ratio)
system.cpu.dcache.overallMshrMissRate::cpu.data     0.001091                       # mshr miss ratio for overall accesses (Ratio)
system.cpu.dcache.overallMshrMissRate::total     0.001091                       # mshr miss ratio for overall accesses (Ratio)
system.cpu.dcache.demandAvgMshrMissLatency::cpu.data 74770.506053                       # average overall mshr miss latency ((Cycle/Count))
system.cpu.dcache.demandAvgMshrMissLatency::total 74770.506053                       # average overall mshr miss latency ((Cycle/Count))
system.cpu.dcache.overallAvgMshrMissLatency::cpu.data 74770.787569                       # average overall mshr miss latency ((Cycle/Count))
system.cpu.dcache.overallAvgMshrMissLatency::total 74770.787569                       # average overall mshr miss latency ((Cycle/Count))
system.cpu.dcache.replacements                  33103                       # number of replacements (Count)
system.cpu.dcache.LoadLockedReq.hits::cpu.data           35                       # number of LoadLockedReq hits (Count)
system.cpu.dcache.LoadLockedReq.hits::total           35                       # number of LoadLockedReq hits (Count)
system.cpu.dcache.LoadLockedReq.misses::cpu.data            5                       # number of LoadLockedReq misses (Count)
system.cpu.dcache.LoadLockedReq.misses::total            5                       # number of LoadLockedReq misses (Count)
system.cpu.dcache.LoadLockedReq.missLatency::cpu.data       340000                       # number of LoadLockedReq miss ticks (Tick)
system.cpu.dcache.LoadLockedReq.missLatency::total       340000                       # number of LoadLockedReq miss ticks (Tick)
system.cpu.dcache.LoadLockedReq.accesses::cpu.data           40                       # number of LoadLockedReq accesses(hits+misses) (Count)
system.cpu.dcache.LoadLockedReq.accesses::total           40                       # number of LoadLockedReq accesses(hits+misses) (Count)
system.cpu.dcache.LoadLockedReq.missRate::cpu.data     0.125000                       # miss rate for LoadLockedReq accesses (Ratio)
system.cpu.dcache.LoadLockedReq.missRate::total     0.125000                       # miss rate for LoadLockedReq accesses (Ratio)
system.cpu.dcache.LoadLockedReq.avgMissLatency::cpu.data        68000                       # average LoadLockedReq miss latency ((Tick/Count))
system.cpu.dcache.LoadLockedReq.avgMissLatency::total        68000                       # average LoadLockedReq miss latency ((Tick/Count))
system.cpu.dcache.LoadLockedReq.mshrHits::cpu.data            2                       # number of LoadLockedReq MSHR hits (Count)
system.cpu.dcache.LoadLockedReq.mshrHits::total            2                       # number of LoadLockedReq MSHR hits (Count)
system.cpu.dcache.LoadLockedReq.mshrMisses::cpu.data            3                       # number of LoadLockedReq MSHR misses (Count)
system.cpu.dcache.LoadLockedReq.mshrMisses::total            3                       # number of LoadLockedReq MSHR misses (Count)
system.cpu.dcache.LoadLockedReq.mshrMissLatency::cpu.data       269500                       # number of LoadLockedReq MSHR miss ticks (Tick)
system.cpu.dcache.LoadLockedReq.mshrMissLatency::total       269500                       # number of LoadLockedReq MSHR miss ticks (Tick)
system.cpu.dcache.LoadLockedReq.mshrMissRate::cpu.data     0.075000                       # mshr miss rate for LoadLockedReq accesses (Ratio)
system.cpu.dcache.LoadLockedReq.mshrMissRate::total     0.075000                       # mshr miss rate for LoadLockedReq accesses (Ratio)
system.cpu.dcache.LoadLockedReq.avgMshrMissLatency::cpu.data 89833.333333                       # average LoadLockedReq mshr miss latency ((Tick/Count))
system.cpu.dcache.LoadLockedReq.avgMshrMissLatency::total 89833.333333                       # average LoadLockedReq mshr miss latency ((Tick/Count))
system.cpu.dcache.ReadReq.hits::cpu.data     20277634                       # number of ReadReq hits (Count)
system.cpu.dcache.ReadReq.hits::total        20277634                       # number of ReadReq hits (Count)
system.cpu.dcache.ReadReq.misses::cpu.data        53041                       # number of ReadReq misses (Count)
system.cpu.dcache.ReadReq.misses::total         53041                       # number of ReadReq misses (Count)
system.cpu.dcache.ReadReq.missLatency::cpu.data   4046093500                       # number of ReadReq miss ticks (Tick)
system.cpu.dcache.ReadReq.missLatency::total   4046093500                       # number of ReadReq miss ticks (Tick)
system.cpu.dcache.ReadReq.accesses::cpu.data     20330675                       # number of ReadReq accesses(hits+misses) (Count)
system.cpu.dcache.ReadReq.accesses::total     20330675                       # number of ReadReq accesses(hits+misses) (Count)
system.cpu.dcache.ReadReq.missRate::cpu.data     0.002609                       # miss rate for ReadReq accesses (Ratio)
system.cpu.dcache.ReadReq.missRate::total     0.002609                       # miss rate for ReadReq accesses (Ratio)
system.cpu.dcache.ReadReq.avgMissLatency::cpu.data 76282.375898                       # average ReadReq miss latency ((Tick/Count))
system.cpu.dcache.ReadReq.avgMissLatency::total 76282.375898                       # average ReadReq miss latency ((Tick/Count))
system.cpu.dcache.ReadReq.mshrHits::cpu.data        30536                       # number of ReadReq MSHR hits (Count)
system.cpu.dcache.ReadReq.mshrHits::total        30536                       # number of ReadReq MSHR hits (Count)
system.cpu.dcache.ReadReq.mshrMisses::cpu.data        22505                       # number of ReadReq MSHR misses (Count)
system.cpu.dcache.ReadReq.mshrMisses::total        22505                       # number of ReadReq MSHR misses (Count)
system.cpu.dcache.ReadReq.mshrMissLatency::cpu.data   1685229000                       # number of ReadReq MSHR miss ticks (Tick)
system.cpu.dcache.ReadReq.mshrMissLatency::total   1685229000                       # number of ReadReq MSHR miss ticks (Tick)
system.cpu.dcache.ReadReq.mshrMissRate::cpu.data     0.001107                       # mshr miss rate for ReadReq accesses (Ratio)
system.cpu.dcache.ReadReq.mshrMissRate::total     0.001107                       # mshr miss rate for ReadReq accesses (Ratio)
system.cpu.dcache.ReadReq.avgMshrMissLatency::cpu.data 74882.426128                       # average ReadReq mshr miss latency ((Tick/Count))
system.cpu.dcache.ReadReq.avgMshrMissLatency::total 74882.426128                       # average ReadReq mshr miss latency ((Tick/Count))
system.cpu.dcache.SoftPFReq.hits::cpu.data        77088                       # number of SoftPFReq hits (Count)
system.cpu.dcache.SoftPFReq.hits::total         77088                       # number of SoftPFReq hits (Count)
system.cpu.dcache.SoftPFReq.misses::cpu.data            7                       # number of SoftPFReq misses (Count)
system.cpu.dcache.SoftPFReq.misses::total            7                       # number of SoftPFReq misses (Count)
system.cpu.dcache.SoftPFReq.accesses::cpu.data        77095                       # number of SoftPFReq accesses(hits+misses) (Count)
system.cpu.dcache.SoftPFReq.accesses::total        77095                       # number of SoftPFReq accesses(hits+misses) (Count)
system.cpu.dcache.SoftPFReq.missRate::cpu.data     0.000091                       # miss rate for SoftPFReq accesses (Ratio)
system.cpu.dcache.SoftPFReq.missRate::total     0.000091                       # miss rate for SoftPFReq accesses (Ratio)
system.cpu.dcache.SoftPFReq.mshrMisses::cpu.data            7                       # number of SoftPFReq MSHR misses (Count)
system.cpu.dcache.SoftPFReq.mshrMisses::total            7                       # number of SoftPFReq MSHR misses (Count)
system.cpu.dcache.SoftPFReq.mshrMissLatency::cpu.data       533000                       # number of SoftPFReq MSHR miss ticks (Tick)
system.cpu.dcache.SoftPFReq.mshrMissLatency::total       533000                       # number of SoftPFReq MSHR miss ticks (Tick)
system.cpu.dcache.SoftPFReq.mshrMissRate::cpu.data     0.000091                       # mshr miss rate for SoftPFReq accesses (Ratio)
system.cpu.dcache.SoftPFReq.mshrMissRate::total     0.000091                       # mshr miss rate for SoftPFReq accesses (Ratio)
system.cpu.dcache.SoftPFReq.avgMshrMissLatency::cpu.data 76142.857143                       # average SoftPFReq mshr miss latency ((Tick/Count))
system.cpu.dcache.SoftPFReq.avgMshrMissLatency::total 76142.857143                       # average SoftPFReq mshr miss latency ((Tick/Count))
system.cpu.dcache.StoreCondReq.hits::cpu.data           10                       # number of StoreCondReq hits (Count)
system.cpu.dcache.StoreCondReq.hits::total           10                       # number of StoreCondReq hits (Count)
system.cpu.dcache.StoreCondReq.accesses::cpu.data           10                       # number of StoreCondReq accesses(hits+misses) (Count)
system.cpu.dcache.StoreCondReq.accesses::total           10                       # number of StoreCondReq accesses(hits+misses) (Count)
system.cpu.dcache.SwapReq.hits::cpu.data        39377                       # number of SwapReq hits (Count)
system.cpu.dcache.SwapReq.hits::total           39377                       # number of SwapReq hits (Count)
system.cpu.dcache.SwapReq.misses::cpu.data            1                       # number of SwapReq misses (Count)
system.cpu.dcache.SwapReq.misses::total             1                       # number of SwapReq misses (Count)
system.cpu.dcache.SwapReq.missLatency::cpu.data        95000                       # number of SwapReq miss ticks (Tick)
system.cpu.dcache.SwapReq.missLatency::total        95000                       # number of SwapReq miss ticks (Tick)
system.cpu.dcache.SwapReq.accesses::cpu.data        39378                       # number of SwapReq accesses(hits+misses) (Count)
system.cpu.dcache.SwapReq.accesses::total        39378                       # number of SwapReq accesses(hits+misses) (Count)
system.cpu.dcache.SwapReq.missRate::cpu.data     0.000025                       # miss rate for SwapReq accesses (Ratio)
system.cpu.dcache.SwapReq.missRate::total     0.000025                       # miss rate for SwapReq accesses (Ratio)
system.cpu.dcache.SwapReq.avgMissLatency::cpu.data        95000                       # average SwapReq miss latency ((Tick/Count))
system.cpu.dcache.SwapReq.avgMissLatency::total        95000                       # average SwapReq miss latency ((Tick/Count))
system.cpu.dcache.SwapReq.mshrHits::cpu.data            1                       # number of SwapReq MSHR hits (Count)
system.cpu.dcache.SwapReq.mshrHits::total            1                       # number of SwapReq MSHR hits (Count)
system.cpu.dcache.WriteLineReq.misses::cpu.data         2054                       # number of WriteLineReq misses (Count)
system.cpu.dcache.WriteLineReq.misses::total         2054                       # number of WriteLineReq misses (Count)
system.cpu.dcache.WriteLineReq.missLatency::cpu.data     35105326                       # number of WriteLineReq miss ticks (Tick)
system.cpu.dcache.WriteLineReq.missLatency::total     35105326                       # number of WriteLineReq miss ticks (Tick)
system.cpu.dcache.WriteLineReq.accesses::cpu.data         2054                       # number of WriteLineReq accesses(hits+misses) (Count)
system.cpu.dcache.WriteLineReq.accesses::total         2054                       # number of WriteLineReq accesses(hits+misses) (Count)
system.cpu.dcache.WriteLineReq.missRate::cpu.data            1                       # miss rate for WriteLineReq accesses (Ratio)
system.cpu.dcache.WriteLineReq.missRate::total            1                       # miss rate for WriteLineReq accesses (Ratio)
system.cpu.dcache.WriteLineReq.avgMissLatency::cpu.data 17091.200584                       # average WriteLineReq miss latency ((Tick/Count))
system.cpu.dcache.WriteLineReq.avgMissLatency::total 17091.200584                       # average WriteLineReq miss latency ((Tick/Count))
system.cpu.dcache.WriteLineReq.mshrMisses::cpu.data         2054                       # number of WriteLineReq MSHR misses (Count)
system.cpu.dcache.WriteLineReq.mshrMisses::total         2054                       # number of WriteLineReq MSHR misses (Count)
system.cpu.dcache.WriteLineReq.mshrMissLatency::cpu.data     33051326                       # number of WriteLineReq MSHR miss ticks (Tick)
system.cpu.dcache.WriteLineReq.mshrMissLatency::total     33051326                       # number of WriteLineReq MSHR miss ticks (Tick)
system.cpu.dcache.WriteLineReq.mshrMissRate::cpu.data            1                       # mshr miss rate for WriteLineReq accesses (Ratio)
system.cpu.dcache.WriteLineReq.mshrMissRate::total            1                       # mshr miss rate for WriteLineReq accesses (Ratio)
system.cpu.dcache.WriteLineReq.avgMshrMissLatency::cpu.data 16091.200584                       # average WriteLineReq mshr miss latency ((Tick/Count))
system.cpu.dcache.WriteLineReq.avgMshrMissLatency::total 16091.200584                       # average WriteLineReq mshr miss latency ((Tick/Count))
system.cpu.dcache.WriteReq.hits::cpu.data     10796122                       # number of WriteReq hits (Count)
system.cpu.dcache.WriteReq.hits::total       10796122                       # number of WriteReq hits (Count)
system.cpu.dcache.WriteReq.misses::cpu.data        65549                       # number of WriteReq misses (Count)
system.cpu.dcache.WriteReq.misses::total        65549                       # number of WriteReq misses (Count)
system.cpu.dcache.WriteReq.missLatency::cpu.data   4530702224                       # number of WriteReq miss ticks (Tick)
system.cpu.dcache.WriteReq.missLatency::total   4530702224                       # number of WriteReq miss ticks (Tick)
system.cpu.dcache.WriteReq.accesses::cpu.data     10861671                       # number of WriteReq accesses(hits+misses) (Count)
system.cpu.dcache.WriteReq.accesses::total     10861671                       # number of WriteReq accesses(hits+misses) (Count)
system.cpu.dcache.WriteReq.missRate::cpu.data     0.006035                       # miss rate for WriteReq accesses (Ratio)
system.cpu.dcache.WriteReq.missRate::total     0.006035                       # miss rate for WriteReq accesses (Ratio)
system.cpu.dcache.WriteReq.avgMissLatency::cpu.data 69119.318739                       # average WriteReq miss latency ((Tick/Count))
system.cpu.dcache.WriteReq.avgMissLatency::total 69119.318739                       # average WriteReq miss latency ((Tick/Count))
system.cpu.dcache.WriteReq.mshrHits::cpu.data        55991                       # number of WriteReq MSHR hits (Count)
system.cpu.dcache.WriteReq.mshrHits::total        55991                       # number of WriteReq MSHR hits (Count)
system.cpu.dcache.WriteReq.mshrMisses::cpu.data         9558                       # number of WriteReq MSHR misses (Count)
system.cpu.dcache.WriteReq.mshrMisses::total         9558                       # number of WriteReq MSHR misses (Count)
system.cpu.dcache.WriteReq.mshrMissLatency::cpu.data    832665029                       # number of WriteReq MSHR miss ticks (Tick)
system.cpu.dcache.WriteReq.mshrMissLatency::total    832665029                       # number of WriteReq MSHR miss ticks (Tick)
system.cpu.dcache.WriteReq.mshrMissRate::cpu.data     0.000880                       # mshr miss rate for WriteReq accesses (Ratio)
system.cpu.dcache.WriteReq.mshrMissRate::total     0.000880                       # mshr miss rate for WriteReq accesses (Ratio)
system.cpu.dcache.WriteReq.avgMshrMissLatency::cpu.data 87117.077736                       # average WriteReq mshr miss latency ((Tick/Count))
system.cpu.dcache.WriteReq.avgMshrMissLatency::total 87117.077736                       # average WriteReq mshr miss latency ((Tick/Count))
system.cpu.dcache.power_state.pwrStateResidencyTicks::UNDEFINED  27638721500                       # Cumulative time (in ticks) in various power states (Tick)
system.cpu.dcache.tags.tagsInUse          1022.457022                       # Average ticks per tags in use ((Tick/Count))
system.cpu.dcache.tags.totalRefs             31224393                       # Total number of references to valid blocks. (Count)
system.cpu.dcache.tags.sampledRefs              34127                       # Sample count of references to valid blocks. (Count)
system.cpu.dcache.tags.avgRefs             914.946904                       # Average number of references to valid blocks. ((Count/Count))
system.cpu.dcache.tags.warmupTick              145000                       # The tick when the warmup percentage was hit. (Tick)
system.cpu.dcache.tags.occupancies::cpu.data  1022.457022                       # Average occupied blocks per tick, per requestor ((Count/Tick))
system.cpu.dcache.tags.avgOccs::cpu.data     0.998493                       # Average percentage of cache occupancy ((Ratio/Tick))
system.cpu.dcache.tags.avgOccs::total        0.998493                       # Average percentage of cache occupancy ((Ratio/Tick))
system.cpu.dcache.tags.occupanciesTaskId::1024         1024                       # Occupied blocks per task id (Count)
system.cpu.dcache.tags.ageTaskId_1024::0           77                       # Occupied blocks per task id, per block age (Count)
system.cpu.dcache.tags.ageTaskId_1024::1           11                       # Occupied blocks per task id, per block age (Count)
system.cpu.dcache.tags.ageTaskId_1024::2          124                       # Occupied blocks per task id, per block age (Count)
system.cpu.dcache.tags.ageTaskId_1024::3          631                       # Occupied blocks per task id, per block age (Count)
system.cpu.dcache.tags.ageTaskId_1024::4          181                       # Occupied blocks per task id, per block age (Count)
system.cpu.dcache.tags.ratioOccsTaskId::1024            1                       # Ratio of occupied blocks and all blocks, per task id (Ratio)
system.cpu.dcache.tags.tagAccesses           62655973                       # Number of tag accesses (Count)
system.cpu.dcache.tags.dataAccesses          62655973                       # Number of data accesses (Count)
system.cpu.dcache.tags.power_state.pwrStateResidencyTicks::UNDEFINED  27638721500                       # Cumulative time (in ticks) in various power states (Tick)
system.cpu.decode.idleCycles                 19190886                       # Number of cycles decode is idle (Cycle)
system.cpu.decode.blockedCycles               9831258                       # Number of cycles decode is blocked (Cycle)
system.cpu.decode.runCycles                  21307113                       # Number of cycles decode is running (Cycle)
system.cpu.decode.unblockCycles               1906179                       # Number of cycles decode is unblocking (Cycle)
system.cpu.decode.squashCycles                 247019                       # Number of cycles decode is squashing (Cycle)
system.cpu.decode.branchResolved             11413446                       # Number of times decode resolved a branch (Count)
system.cpu.decode.branchMispred                 49512                       # Number of times decode detected a branch misprediction (Count)
system.cpu.decode.decodedInsts              124831729                       # Number of instructions handled by decode (Count)
system.cpu.decode.squashedInsts                 98728                       # Number of squashed instructions handled by decode (Count)
system.cpu.fetch.icacheStallCycles           21729772                       # Number of cycles fetch is stalled on an Icache miss (Cycle)
system.cpu.fetch.insts                      118104617                       # Number of instructions fetch has processed (Count)
system.cpu.fetch.branches                    20232118                       # Number of branches that fetch encountered (Count)
system.cpu.fetch.predictedBranches           12722364                       # Number of branches that fetch has predicted taken (Count)
system.cpu.fetch.cycles                      30456062                       # Number of cycles fetch has run and was not squashing or blocked (Cycle)
system.cpu.fetch.squashCycles                  593040                       # Number of cycles fetch has spent squashing (Cycle)
system.cpu.fetch.miscStallCycles                    7                       # Number of cycles fetch has spent waiting on interrupts, or bad addresses, or out of MSHRs (Cycle)
system.cpu.fetch.icacheWaitRetryStallCycles           94                       # Number of stall cycles due to full MSHR (Cycle)
system.cpu.fetch.cacheLines                  17916926                       # Number of cache lines fetched (Count)
system.cpu.fetch.icacheSquashes                122880                       # Number of outstanding Icache misses that were squashed (Count)
system.cpu.fetch.nisnDist::samples           52482455                       # Number of instructions fetched each cycle (Total) (Count)
system.cpu.fetch.nisnDist::mean              2.422604                       # Number of instructions fetched each cycle (Total) (Count)
system.cpu.fetch.nisnDist::stdev             3.022525                       # Number of instructions fetched each cycle (Total) (Count)
system.cpu.fetch.nisnDist::underflows               0      0.00%      0.00% # Number of instructions fetched each cycle (Total) (Count)
system.cpu.fetch.nisnDist::0                 27452785     52.31%     52.31% # Number of instructions fetched each cycle (Total) (Count)
system.cpu.fetch.nisnDist::1                  1210879      2.31%     54.62% # Number of instructions fetched each cycle (Total) (Count)
system.cpu.fetch.nisnDist::2                  4615407      8.79%     63.41% # Number of instructions fetched each cycle (Total) (Count)
system.cpu.fetch.nisnDist::3                  1350454      2.57%     65.98% # Number of instructions fetched each cycle (Total) (Count)
system.cpu.fetch.nisnDist::4                  3989925      7.60%     73.59% # Number of instructions fetched each cycle (Total) (Count)
system.cpu.fetch.nisnDist::5                  1535620      2.93%     76.51% # Number of instructions fetched each cycle (Total) (Count)
system.cpu.fetch.nisnDist::6                  4279693      8.15%     84.67% # Number of instructions fetched each cycle (Total) (Count)
system.cpu.fetch.nisnDist::7                  1046365      1.99%     86.66% # Number of instructions fetched each cycle (Total) (Count)
system.cpu.fetch.nisnDist::8                  7001327     13.34%    100.00% # Number of instructions fetched each cycle (Total) (Count)
system.cpu.fetch.nisnDist::overflows                0      0.00%    100.00% # Number of instructions fetched each cycle (Total) (Count)
system.cpu.fetch.nisnDist::min_value                0                       # Number of instructions fetched each cycle (Total) (Count)
system.cpu.fetch.nisnDist::max_value                8                       # Number of instructions fetched each cycle (Total) (Count)
system.cpu.fetch.nisnDist::total             52482455                       # Number of instructions fetched each cycle (Total) (Count)
system.cpu.fetch.branchRate                  0.366010                       # Number of branch fetches per cycle (Ratio)
system.cpu.fetch.rate                        2.136579                       # Number of inst fetches per cycle ((Count/Cycle))
system.cpu.icache.demandHits::cpu.inst       17755494                       # number of demand (read+write) hits (Count)
system.cpu.icache.demandHits::total          17755494                       # number of demand (read+write) hits (Count)
system.cpu.icache.overallHits::cpu.inst      17755494                       # number of overall hits (Count)
system.cpu.icache.overallHits::total         17755494                       # number of overall hits (Count)
system.cpu.icache.demandMisses::cpu.inst       161432                       # number of demand (read+write) misses (Count)
system.cpu.icache.demandMisses::total          161432                       # number of demand (read+write) misses (Count)
system.cpu.icache.overallMisses::cpu.inst       161432                       # number of overall misses (Count)
system.cpu.icache.overallMisses::total         161432                       # number of overall misses (Count)
system.cpu.icache.demandMissLatency::cpu.inst   3739290996                       # number of demand (read+write) miss ticks (Tick)
system.cpu.icache.demandMissLatency::total   3739290996                       # number of demand (read+write) miss ticks (Tick)
system.cpu.icache.overallMissLatency::cpu.inst   3739290996                       # number of overall miss ticks (Tick)
system.cpu.icache.overallMissLatency::total   3739290996                       # number of overall miss ticks (Tick)
system.cpu.icache.demandAccesses::cpu.inst     17916926                       # number of demand (read+write) accesses (Count)
system.cpu.icache.demandAccesses::total      17916926                       # number of demand (read+write) accesses (Count)
system.cpu.icache.overallAccesses::cpu.inst     17916926                       # number of overall (read+write) accesses (Count)
system.cpu.icache.overallAccesses::total     17916926                       # number of overall (read+write) accesses (Count)
system.cpu.icache.demandMissRate::cpu.inst     0.009010                       # miss rate for demand accesses (Ratio)
system.cpu.icache.demandMissRate::total      0.009010                       # miss rate for demand accesses (Ratio)
system.cpu.icache.overallMissRate::cpu.inst     0.009010                       # miss rate for overall accesses (Ratio)
system.cpu.icache.overallMissRate::total     0.009010                       # miss rate for overall accesses (Ratio)
system.cpu.icache.demandAvgMissLatency::cpu.inst 23163.257570                       # average overall miss latency ((Cycle/Count))
system.cpu.icache.demandAvgMissLatency::total 23163.257570                       # average overall miss latency ((Cycle/Count))
system.cpu.icache.overallAvgMissLatency::cpu.inst 23163.257570                       # average overall miss latency ((Cycle/Count))
system.cpu.icache.overallAvgMissLatency::total 23163.257570                       # average overall miss latency ((Cycle/Count))
system.cpu.icache.blockedCycles::no_mshrs          921                       # number of cycles access was blocked (Cycle)
system.cpu.icache.blockedCycles::no_targets            0                       # number of cycles access was blocked (Cycle)
system.cpu.icache.blockedCauses::no_mshrs           18                       # number of times access was blocked (Count)
system.cpu.icache.blockedCauses::no_targets            0                       # number of times access was blocked (Count)
system.cpu.icache.avgBlocked::no_mshrs      51.166667                       # average number of cycles each access was blocked ((Cycle/Count))
system.cpu.icache.avgBlocked::no_targets          nan                       # average number of cycles each access was blocked ((Cycle/Count))
system.cpu.icache.writebacks::writebacks       151316                       # number of writebacks (Count)
system.cpu.icache.writebacks::total            151316                       # number of writebacks (Count)
system.cpu.icache.demandMshrHits::cpu.inst         9615                       # number of demand (read+write) MSHR hits (Count)
system.cpu.icache.demandMshrHits::total          9615                       # number of demand (read+write) MSHR hits (Count)
system.cpu.icache.overallMshrHits::cpu.inst         9615                       # number of overall MSHR hits (Count)
system.cpu.icache.overallMshrHits::total         9615                       # number of overall MSHR hits (Count)
system.cpu.icache.demandMshrMisses::cpu.inst       151817                       # number of demand (read+write) MSHR misses (Count)
system.cpu.icache.demandMshrMisses::total       151817                       # number of demand (read+write) MSHR misses (Count)
system.cpu.icache.overallMshrMisses::cpu.inst       151817                       # number of overall MSHR misses (Count)
system.cpu.icache.overallMshrMisses::total       151817                       # number of overall MSHR misses (Count)
system.cpu.icache.demandMshrMissLatency::cpu.inst   3439697498                       # number of demand (read+write) MSHR miss ticks (Tick)
system.cpu.icache.demandMshrMissLatency::total   3439697498                       # number of demand (read+write) MSHR miss ticks (Tick)
system.cpu.icache.overallMshrMissLatency::cpu.inst   3439697498                       # number of overall MSHR miss ticks (Tick)
system.cpu.icache.overallMshrMissLatency::total   3439697498                       # number of overall MSHR miss ticks (Tick)
system.cpu.icache.demandMshrMissRate::cpu.inst     0.008473                       # mshr miss ratio for demand accesses (Ratio)
system.cpu.icache.demandMshrMissRate::total     0.008473                       # mshr miss ratio for demand accesses (Ratio)
system.cpu.icache.overallMshrMissRate::cpu.inst     0.008473                       # mshr miss ratio for overall accesses (Ratio)
system.cpu.icache.overallMshrMissRate::total     0.008473                       # mshr miss ratio for overall accesses (Ratio)
system.cpu.icache.demandAvgMshrMissLatency::cpu.inst 22656.866477                       # average overall mshr miss latency ((Cycle/Count))
system.cpu.icache.demandAvgMshrMissLatency::total 22656.866477                       # average overall mshr miss latency ((Cycle/Count))
system.cpu.icache.overallAvgMshrMissLatency::cpu.inst 22656.866477                       # average overall mshr miss latency ((Cycle/Count))
system.cpu.icache.overallAvgMshrMissLatency::total 22656.866477                       # average overall mshr miss latency ((Cycle/Count))
system.cpu.icache.replacements                 151316                       # number of replacements (Count)
system.cpu.icache.ReadReq.hits::cpu.inst     17755494                       # number of ReadReq hits (Count)
system.cpu.icache.ReadReq.hits::total        17755494                       # number of ReadReq hits (Count)
system.cpu.icache.ReadReq.misses::cpu.inst       161432                       # number of ReadReq misses (Count)
system.cpu.icache.ReadReq.misses::total        161432                       # number of ReadReq misses (Count)
system.cpu.icache.ReadReq.missLatency::cpu.inst   3739290996                       # number of ReadReq miss ticks (Tick)
system.cpu.icache.ReadReq.missLatency::total   3739290996                       # number of ReadReq miss ticks (Tick)
system.cpu.icache.ReadReq.accesses::cpu.inst     17916926                       # number of ReadReq accesses(hits+misses) (Count)
system.cpu.icache.ReadReq.accesses::total     17916926                       # number of ReadReq accesses(hits+misses) (Count)
system.cpu.icache.ReadReq.missRate::cpu.inst     0.009010                       # miss rate for ReadReq accesses (Ratio)
system.cpu.icache.ReadReq.missRate::total     0.009010                       # miss rate for ReadReq accesses (Ratio)
system.cpu.icache.ReadReq.avgMissLatency::cpu.inst 23163.257570                       # average ReadReq miss latency ((Tick/Count))
system.cpu.icache.ReadReq.avgMissLatency::total 23163.257570                       # average ReadReq miss latency ((Tick/Count))
system.cpu.icache.ReadReq.mshrHits::cpu.inst         9615                       # number of ReadReq MSHR hits (Count)
system.cpu.icache.ReadReq.mshrHits::total         9615                       # number of ReadReq MSHR hits (Count)
system.cpu.icache.ReadReq.mshrMisses::cpu.inst       151817                       # number of ReadReq MSHR misses (Count)
system.cpu.icache.ReadReq.mshrMisses::total       151817                       # number of ReadReq MSHR misses (Count)
system.cpu.icache.ReadReq.mshrMissLatency::cpu.inst   3439697498                       # number of ReadReq MSHR miss ticks (Tick)
system.cpu.icache.ReadReq.mshrMissLatency::total   3439697498                       # number of ReadReq MSHR miss ticks (Tick)
system.cpu.icache.ReadReq.mshrMissRate::cpu.inst     0.008473                       # mshr miss rate for ReadReq accesses (Ratio)
system.cpu.icache.ReadReq.mshrMissRate::total     0.008473                       # mshr miss rate for ReadReq accesses (Ratio)
system.cpu.icache.ReadReq.avgMshrMissLatency::cpu.inst 22656.866477                       # average ReadReq mshr miss latency ((Tick/Count))
system.cpu.icache.ReadReq.avgMshrMissLatency::total 22656.866477                       # average ReadReq mshr miss latency ((Tick/Count))
system.cpu.icache.power_state.pwrStateResidencyTicks::UNDEFINED  27638721500                       # Cumulative time (in ticks) in various power states (Tick)
system.cpu.icache.tags.tagsInUse           495.909974                       # Average ticks per tags in use ((Tick/Count))
system.cpu.icache.tags.totalRefs             17907310                       # Total number of references to valid blocks. (Count)
system.cpu.icache.tags.sampledRefs             151816                       # Sample count of references to valid blocks. (Count)
system.cpu.icache.tags.avgRefs             117.954036                       # Average number of references to valid blocks. ((Count/Count))
system.cpu.icache.tags.warmupTick               77000                       # The tick when the warmup percentage was hit. (Tick)
system.cpu.icache.tags.occupancies::cpu.inst   495.909974                       # Average occupied blocks per tick, per requestor ((Count/Tick))
system.cpu.icache.tags.avgOccs::cpu.inst     0.968574                       # Average percentage of cache occupancy ((Ratio/Tick))
system.cpu.icache.tags.avgOccs::total        0.968574                       # Average percentage of cache occupancy ((Ratio/Tick))
system.cpu.icache.tags.occupanciesTaskId::1024          500                       # Occupied blocks per task id (Count)
system.cpu.icache.tags.ageTaskId_1024::0          100                       # Occupied blocks per task id, per block age (Count)
system.cpu.icache.tags.ageTaskId_1024::2            1                       # Occupied blocks per task id, per block age (Count)
system.cpu.icache.tags.ageTaskId_1024::3           11                       # Occupied blocks per task id, per block age (Count)
system.cpu.icache.tags.ageTaskId_1024::4          388                       # Occupied blocks per task id, per block age (Count)
system.cpu.icache.tags.ratioOccsTaskId::1024     0.976562                       # Ratio of occupied blocks and all blocks, per task id (Ratio)
system.cpu.icache.tags.tagAccesses           35985668                       # Number of tag accesses (Count)
system.cpu.icache.tags.dataAccesses          35985668                       # Number of data accesses (Count)
system.cpu.icache.tags.power_state.pwrStateResidencyTicks::UNDEFINED  27638721500                       # Cumulative time (in ticks) in various power states (Tick)
system.cpu.iew.idleCycles                           0                       # Number of cycles IEW is idle (Cycle)
system.cpu.iew.squashCycles                    247019                       # Number of cycles IEW is squashing (Cycle)
system.cpu.iew.blockCycles                    1456883                       # Number of cycles IEW is blocking (Cycle)
[...]
system.mem_ctrls.dram.bwRead::cpu.inst      351543902                       # Total read bandwidth from this memory ((Byte/Second))
system.mem_ctrls.dram.bwRead::cpu.data       73828017                       # Total read bandwidth from this memory ((Byte/Second))
system.mem_ctrls.dram.bwRead::total         425371919                       # Total read bandwidth from this memory ((Byte/Second))
system.mem_ctrls.dram.bwInstRead::cpu.inst    351543902                       # Instruction read bandwidth from this memory ((Byte/Second))
system.mem_ctrls.dram.bwInstRead::total     351543902                       # Instruction read bandwidth from this memory ((Byte/Second))
system.mem_ctrls.dram.bwWrite::writebacks     52133236                       # Write bandwidth from this memory ((Byte/Second))
system.mem_ctrls.dram.bwWrite::total         52133236                       # Write bandwidth from this memory ((Byte/Second))
system.mem_ctrls.dram.bwTotal::writebacks     52133236                       # Total bandwidth to/from this memory ((Byte/Second))
system.mem_ctrls.dram.bwTotal::cpu.inst     351543902                       # Total bandwidth to/from this memory ((Byte/Second))
system.mem_ctrls.dram.bwTotal::cpu.data      73828017                       # Total bandwidth to/from this memory ((Byte/Second))
system.mem_ctrls.dram.bwTotal::total        477505155                       # Total bandwidth to/from this memory ((Byte/Second))
system.mem_ctrls.dram.readBursts                33732                       # Number of DRAM read bursts (Count)
system.mem_ctrls.dram.writeBursts               25042                       # Number of DRAM write bursts (Count)
system.mem_ctrls.dram.perBankRdBursts::0         2049                       # Per bank write bursts (Count)
system.mem_ctrls.dram.perBankRdBursts::1         2057                       # Per bank write bursts (Count)
system.mem_ctrls.dram.perBankRdBursts::2         1984                       # Per bank write bursts (Count)
system.mem_ctrls.dram.perBankRdBursts::3         2253                       # Per bank write bursts (Count)
system.mem_ctrls.dram.perBankRdBursts::4         2437                       # Per bank write bursts (Count)
system.mem_ctrls.dram.perBankRdBursts::5         2591                       # Per bank write bursts (Count)
system.mem_ctrls.dram.perBankRdBursts::6         2304                       # Per bank write bursts (Count)
system.mem_ctrls.dram.perBankRdBursts::7         2457                       # Per bank write bursts (Count)
system.mem_ctrls.dram.perBankRdBursts::8         1984                       # Per bank write bursts (Count)
system.mem_ctrls.dram.perBankRdBursts::9         2097                       # Per bank write bursts (Count)
system.mem_ctrls.dram.perBankRdBursts::10         1980                       # Per bank write bursts (Count)
system.mem_ctrls.dram.perBankRdBursts::11         1828                       # Per bank write bursts (Count)
system.mem_ctrls.dram.perBankRdBursts::12         1987                       # Per bank write bursts (Count)
system.mem_ctrls.dram.perBankRdBursts::13         2045                       # Per bank write bursts (Count)
system.mem_ctrls.dram.perBankRdBursts::14         1807                       # Per bank write bursts (Count)
system.mem_ctrls.dram.perBankRdBursts::15         1872                       # Per bank write bursts (Count)
system.mem_ctrls.dram.perBankWrBursts::0         1498                       # Per bank write bursts (Count)
system.mem_ctrls.dram.perBankWrBursts::1         1460                       # Per bank write bursts (Count)
system.mem_ctrls.dram.perBankWrBursts::2         1417                       # Per bank write bursts (Count)
system.mem_ctrls.dram.perBankWrBursts::3         1587                       # Per bank write bursts (Count)
system.mem_ctrls.dram.perBankWrBursts::4         1756                       # Per bank write bursts (Count)
system.mem_ctrls.dram.perBankWrBursts::5         1799                       # Per bank write bursts (Count)
system.mem_ctrls.dram.perBankWrBursts::6         1555                       # Per bank write bursts (Count)
system.mem_ctrls.dram.perBankWrBursts::7         1767                       # Per bank write bursts (Count)
system.mem_ctrls.dram.perBankWrBursts::8         1460                       # Per bank write bursts (Count)
system.mem_ctrls.dram.perBankWrBursts::9         1805                       # Per bank write bursts (Count)
system.mem_ctrls.dram.perBankWrBursts::10         1335                       # Per bank write bursts (Count)
system.mem_ctrls.dram.perBankWrBursts::11         1516                       # Per bank write bursts (Count)
system.mem_ctrls.dram.perBankWrBursts::12         1432                       # Per bank write bursts (Count)
system.mem_ctrls.dram.perBankWrBursts::13         2046                       # Per bank write bursts (Count)
system.mem_ctrls.dram.perBankWrBursts::14         1259                       # Per bank write bursts (Count)
system.mem_ctrls.dram.perBankWrBursts::15         1350                       # Per bank write bursts (Count)
system.mem_ctrls.dram.totQLat               919888000                       # Total ticks spent queuing (Tick)
system.mem_ctrls.dram.totBusLat             168660000                       # Total ticks spent in databus transfers (Tick)
system.mem_ctrls.dram.totMemAccLat         1552363000                       # Total ticks spent from burst creation until serviced by the DRAM (Tick)
system.mem_ctrls.dram.avgQLat                27270.48                       # Average queueing delay per DRAM burst ((Tick/Count))
system.mem_ctrls.dram.avgBusLat               5000.00                       # Average bus latency per DRAM burst ((Tick/Count))
system.mem_ctrls.dram.avgMemAccLat           46020.48                       # Average memory access latency per DRAM burst ((Tick/Count))
system.mem_ctrls.dram.readRowHits               22672                       # Number of row buffer hits during reads (Count)
system.mem_ctrls.dram.writeRowHits              20859                       # Number of row buffer hits during writes (Count)
system.mem_ctrls.dram.readRowHitRate            67.21                       # Row buffer hit rate for reads (Ratio)
system.mem_ctrls.dram.writeRowHitRate           83.30                       # Row buffer hit rate for writes (Ratio)
system.mem_ctrls.dram.bytesPerActivate::samples        15228                       # Bytes accessed per row activation (Byte)
system.mem_ctrls.dram.bytesPerActivate::mean   246.884161                       # Bytes accessed per row activation (Byte)
system.mem_ctrls.dram.bytesPerActivate::gmean   169.510518                       # Bytes accessed per row activation (Byte)
system.mem_ctrls.dram.bytesPerActivate::stdev   235.451424                       # Bytes accessed per row activation (Byte)
system.mem_ctrls.dram.bytesPerActivate::0-127         5092     33.44%     33.44% # Bytes accessed per row activation (Byte)
system.mem_ctrls.dram.bytesPerActivate::128-255         4111     27.00%     60.43% # Bytes accessed per row activation (Byte)
system.mem_ctrls.dram.bytesPerActivate::256-383         3221     21.15%     81.59% # Bytes accessed per row activation (Byte)
system.mem_ctrls.dram.bytesPerActivate::384-511          975      6.40%     87.99% # Bytes accessed per row activation (Byte)
system.mem_ctrls.dram.bytesPerActivate::512-639          603      3.96%     91.95% # Bytes accessed per row activation (Byte)
system.mem_ctrls.dram.bytesPerActivate::640-767          276      1.81%     93.76% # Bytes accessed per row activation (Byte)
system.mem_ctrls.dram.bytesPerActivate::768-895          222      1.46%     95.22% # Bytes accessed per row activation (Byte)
system.mem_ctrls.dram.bytesPerActivate::896-1023           76      0.50%     95.72% # Bytes accessed per row activation (Byte)
system.mem_ctrls.dram.bytesPerActivate::1024-1151          652      4.28%    100.00% # Bytes accessed per row activation (Byte)
system.mem_ctrls.dram.bytesPerActivate::total        15228                       # Bytes accessed per row activation (Byte)
system.mem_ctrls.dram.bytesRead               2158848                       # Total bytes read (Byte)
system.mem_ctrls.dram.bytesWritten            1602688                       # Total bytes written (Byte)
system.mem_ctrls.dram.avgRdBW               78.109546                       # Average DRAM read bandwidth in MiBytes/s ((Byte/Second))
system.mem_ctrls.dram.avgWrBW               57.987053                       # Average DRAM write bandwidth in MiBytes/s ((Byte/Second))
system.mem_ctrls.dram.peakBW                 12800.00                       # Theoretical peak bandwidth in MiByte/s ((Byte/Second))
system.mem_ctrls.dram.busUtil                    1.06                       # Data bus utilization in percentage (Ratio)
system.mem_ctrls.dram.busUtilRead                0.61                       # Data bus utilization in percentage for reads (Ratio)
system.mem_ctrls.dram.busUtilWrite               0.45                       # Data bus utilization in percentage for writes (Ratio)
system.mem_ctrls.dram.pageHitRate               74.07                       # Row buffer hit rate, read and write combined (Ratio)
system.mem_ctrls.dram.power_state.pwrStateResidencyTicks::UNDEFINED  27638721500                       # Cumulative time (in ticks) in various power states (Tick)
system.mem_ctrls.dram.rank0.actEnergy        58583700                       # Energy for activate commands per rank (pJ) (Joule)
system.mem_ctrls.dram.rank0.preEnergy        31115205                       # Energy for precharge commands per rank (pJ) (Joule)
system.mem_ctrls.dram.rank0.readEnergy      129455340                       # Energy for read commands per rank (pJ) (Joule)
system.mem_ctrls.dram.rank0.writeEnergy      67019580                       # Energy for write commands per rank (pJ) (Joule)
system.mem_ctrls.dram.rank0.refreshEnergy 2181357360.000000                       # Energy for refresh commands per rank (pJ) (Joule)
system.mem_ctrls.dram.rank0.actBackEnergy   6410852130                       # Energy for active background per rank (pJ) (Joule)
system.mem_ctrls.dram.rank0.preBackEnergy   5214657120                       # Energy for precharge background per rank (pJ) (Joule)
system.mem_ctrls.dram.rank0.actPowerDownEnergy            0                       # Energy for active power-down per rank (pJ) (Joule)
system.mem_ctrls.dram.rank0.prePowerDownEnergy            0                       # Energy for precharge power-down per rank (pJ) (Joule)
system.mem_ctrls.dram.rank0.selfRefreshEnergy            0                       # Energy for self refresh per rank (pJ) (Joule)
system.mem_ctrls.dram.rank0.totalEnergy   14093040435                       # Total energy per rank (pJ) (Joule)
system.mem_ctrls.dram.rank0.averagePower   509.902039                       # Core power per rank (mW) (Watt)
system.mem_ctrls.dram.rank0.totalIdleTime            0                       # Total Idle time Per DRAM Rank (Tick)
system.mem_ctrls.dram.rank0.pwrStateTime::IDLE  13483089000                       # Time in different power states (Tick)
system.mem_ctrls.dram.rank0.pwrStateTime::REF    922740000                       # Time in different power states (Tick)
system.mem_ctrls.dram.rank0.pwrStateTime::SREF            0                       # Time in different power states (Tick)
system.mem_ctrls.dram.rank0.pwrStateTime::PRE_PDN            0                       # Time in different power states (Tick)
system.mem_ctrls.dram.rank0.pwrStateTime::ACT  13232892500                       # Time in different power states (Tick)
system.mem_ctrls.dram.rank0.pwrStateTime::ACT_PDN            0                       # Time in different power states (Tick)
system.mem_ctrls.dram.rank1.actEnergy        50244180                       # Energy for activate commands per rank (pJ) (Joule)
system.mem_ctrls.dram.rank1.preEnergy        26675055                       # Energy for precharge commands per rank (pJ) (Joule)
system.mem_ctrls.dram.rank1.readEnergy      111384000                       # Energy for read commands per rank (pJ) (Joule)
system.mem_ctrls.dram.rank1.writeEnergy      63699660                       # Energy for write commands per rank (pJ) (Joule)
system.mem_ctrls.dram.rank1.refreshEnergy 2181357360.000000                       # Energy for refresh commands per rank (pJ) (Joule)
system.mem_ctrls.dram.rank1.actBackEnergy   5324232630                       # Energy for active background per rank (pJ) (Joule)
system.mem_ctrls.dram.rank1.preBackEnergy   6129705120                       # Energy for precharge background per rank (pJ) (Joule)
system.mem_ctrls.dram.rank1.actPowerDownEnergy            0                       # Energy for active power-down per rank (pJ) (Joule)
system.mem_ctrls.dram.rank1.prePowerDownEnergy            0                       # Energy for precharge power-down per rank (pJ) (Joule)
system.mem_ctrls.dram.rank1.selfRefreshEnergy            0                       # Energy for self refresh per rank (pJ) (Joule)
system.mem_ctrls.dram.rank1.totalEnergy   13887298005                       # Total energy per rank (pJ) (Joule)
system.mem_ctrls.dram.rank1.averagePower   502.458046                       # Core power per rank (mW) (Watt)
system.mem_ctrls.dram.rank1.totalIdleTime            0                       # Total Idle time Per DRAM Rank (Tick)
system.mem_ctrls.dram.rank1.pwrStateTime::IDLE  15870652750                       # Time in different power states (Tick)
system.mem_ctrls.dram.rank1.pwrStateTime::REF    922740000                       # Time in different power states (Tick)
system.mem_ctrls.dram.rank1.pwrStateTime::SREF            0                       # Time in different power states (Tick)
system.mem_ctrls.dram.rank1.pwrStateTime::PRE_PDN            0                       # Time in different power states (Tick)
system.mem_ctrls.dram.rank1.pwrStateTime::ACT  10845328750                       # Time in different power states (Tick)
system.mem_ctrls.dram.rank1.pwrStateTime::ACT_PDN            0                       # Time in different power states (Tick)
system.mem_ctrls.power_state.pwrStateResidencyTicks::UNDEFINED  27638721500                       # Cumulative time (in ticks) in various power states (Tick)
system.membus.transDist::ReadResp              174330                       # Transaction distribution (Count)
system.membus.transDist::WritebackDirty         22514                       # Transaction distribution (Count)
system.membus.transDist::WritebackClean        151316                       # Transaction distribution (Count)
system.membus.transDist::CleanEvict             10589                       # Transaction distribution (Count)
system.membus.transDist::ReadExReq               9369                       # Transaction distribution (Count)
system.membus.transDist::ReadExResp              9369                       # Transaction distribution (Count)
system.membus.transDist::ReadCleanReq          151817                       # Transaction distribution (Count)
system.membus.transDist::ReadSharedReq          22514                       # Transaction distribution (Count)
system.membus.transDist::InvalidateReq           2244                       # Transaction distribution (Count)
system.membus.pktCount_system.cpu.icache.mem_side_port::system.mem_ctrls.port       454949                       # Packet count per connected requestor and responder (Count)
system.membus.pktCount_system.cpu.dcache.mem_side_port::system.mem_ctrls.port        99113                       # Packet count per connected requestor and responder (Count)
system.membus.pktCount::total                  554062                       # Packet count per connected requestor and responder (Count)
system.membus.pktSize_system.cpu.icache.mem_side_port::system.mem_ctrls.port     19400448                       # Cumulative packet size per connected requestor and responder (Byte)
system.membus.pktSize_system.cpu.dcache.mem_side_port::system.mem_ctrls.port      3481408                       # Cumulative packet size per connected requestor and responder (Byte)
system.membus.pktSize::total                 22881856                       # Cumulative packet size per connected requestor and responder (Byte)
system.membus.snoops                                0                       # Total snoops (Count)
system.membus.snoopTraffic                          0                       # Total snoop traffic (Byte)
system.membus.snoopFanout::samples             185944                       # Request fanout histogram (Count)
system.membus.snoopFanout::mean              0.000016                       # Request fanout histogram (Count)
system.membus.snoopFanout::stdev             0.004017                       # Request fanout histogram (Count)
system.membus.snoopFanout::underflows               0      0.00%      0.00% # Request fanout histogram (Count)
system.membus.snoopFanout::0                   185941    100.00%    100.00% # Request fanout histogram (Count)
system.membus.snoopFanout::1                        3      0.00%    100.00% # Request fanout histogram (Count)
system.membus.snoopFanout::2                        0      0.00%    100.00% # Request fanout histogram (Count)
system.membus.snoopFanout::overflows                0      0.00%    100.00% # Request fanout histogram (Count)
system.membus.snoopFanout::min_value                0                       # Request fanout histogram (Count)
system.membus.snoopFanout::max_value                1                       # Request fanout histogram (Count)
system.membus.snoopFanout::total               185944                       # Request fanout histogram (Count)
system.membus.power_state.pwrStateResidencyTicks::UNDEFINED  27638721500                       # Cumulative time (in ticks) in various power states (Tick)
system.membus.reqLayer0.occupancy          1087549750                       # Layer occupancy (ticks) (Tick)
system.membus.reqLayer0.utilization               0.0                       # Layer utilization (Ratio)
system.membus.respLayer1.occupancy          759729250                       # Layer occupancy (ticks) (Tick)
system.membus.respLayer1.utilization              0.0                       # Layer utilization (Ratio)
system.membus.respLayer2.occupancy          167683000                       # Layer occupancy (ticks) (Tick)
system.membus.respLayer2.utilization              0.0                       # Layer utilization (Ratio)
system.membus.snoop_filter.totRequests         370364                       # Total number of requests made to the snoop filter. (Count)
system.membus.snoop_filter.hitSingleRequests       184421                       # Number of requests hitting in the snoop filter with a single holder of the requested data. (Count)
system.membus.snoop_filter.hitMultiRequests            2                       # Number of requests hitting in the snoop filter with multiple (>1) holders of the requested data. (Count)
system.membus.snoop_filter.totSnoops                0                       # Total number of snoops made to the snoop filter. (Count)
system.membus.snoop_filter.hitSingleSnoops            0                       # Number of snoops hitting in the snoop filter with a single holder of the requested data. (Count)
system.membus.snoop_filter.hitMultiSnoops            0                       # Number of snoops hitting in the snoop filter with multiple (>1) holders of the requested data. (Count)
system.voltage_domain.voltage                       1                       # Voltage in Volts (Volt)
system.workload.inst.arm                            0                       # number of arm instructions executed (Count)
system.workload.inst.quiesce                        0                       # number of quiesce instructions executed (Count)

---------- End Simulation Statistics   ----------
