
---------- Begin Simulation Statistics ----------
simSeconds                                   0.010491                       # Number of seconds simulated (Second)
simTicks                                  10490945500                       # Number of ticks simulated (Tick)
finalTick                                 10490945500                       # Number of ticks from beginning of simulation (restored from checkpoints and never reset) (Tick)
simFreq                                  1000000000000                       # The number of ticks per simulated second ((Tick/Second))
hostSeconds                                     55.40                       # Real time elapsed on the host (Second)
hostTickRate                                189374207                       # The number of ticks simulated per host second (ticks/s) ((Tick/Second))
hostMemory                                     680488                       # Number of bytes of host memory used (Byte)
simInsts                                     34420556                       # Number of instructions simulated (Count)
simOps                                       38452508                       # Number of ops (including micro ops) simulated (Count)
hostInstRate                                   621332                       # Simulator instruction rate (inst/s) ((Count/Second))
hostOpRate                                     694113                       # Simulator op (including micro ops) rate (op/s) ((Count/Second))
system.clk_domain.clock                          1000                       # Clock period in ticks (Tick)
system.cpu.numCycles                         20981892                       # Number of cpu cycles simulated (Cycle)
system.cpu.numWorkItemsStarted                      0                       # Number of work items this cpu started (Count)
system.cpu.numWorkItemsCompleted                    0                       # Number of work items this cpu completed (Count)
system.cpu.instsAdded                        40632310                       # Number of instructions added to the IQ (excludes non-spec) (Count)
system.cpu.nonSpecInstsAdded                    69154                       # Number of non-speculative instructions added to the IQ (Count)
system.cpu.instsIssued                       40525902                       # Number of instructions issued (Count)
system.cpu.squashedInstsIssued                 124107                       # Number of squashed instructions issued (Count)
system.cpu.squashedInstsExamined              2248955                       # Number of squashed instructions iterated over during squash; mainly for profiling (Count)
system.cpu.squashedOperandsExamined           1719767                       # Number of squashed operands that are examined and possibly removed from graph (Count)
system.cpu.squashedNonSpecRemoved                 164                       # Number of squashed non-spec instructions that were removed (Count)
system.cpu.numIssuedDist::samples            20436140                       # Number of insts issued each cycle (Count)
system.cpu.numIssuedDist::mean               1.983051                       # Number of insts issued each cycle (Count)
system.cpu.numIssuedDist::stdev              2.259852                       # Number of insts issued each cycle (Count)
system.cpu.numIssuedDist::underflows                0      0.00%      0.00% # Number of insts issued each cycle (Count)
system.cpu.numIssuedDist::0                   8307366     40.65%     40.65% # Number of insts issued each cycle (Count)
system.cpu.numIssuedDist::1                   2612777     12.79%     53.44% # Number of insts issued each cycle (Count)
system.cpu.numIssuedDist::2                   2515817     12.31%     65.75% # Number of insts issued each cycle (Count)
system.cpu.numIssuedDist::3                   2161499     10.58%     76.32% # Number of insts issued each cycle (Count)
system.cpu.numIssuedDist::4                   1648746      8.07%     84.39% # Number of insts issued each cycle (Count)
system.cpu.numIssuedDist::5                    945524      4.63%     89.02% # Number of insts issued each cycle (Count)
system.cpu.numIssuedDist::6                   1077211      5.27%     94.29% # Number of insts issued each cycle (Count)
system.cpu.numIssuedDist::7                    726476      3.55%     97.84% # Number of insts issued each cycle (Count)
system.cpu.numIssuedDist::8                    440724      2.16%    100.00% # Number of insts issued each cycle (Count)
system.cpu.numIssuedDist::overflows                 0      0.00%    100.00% # Number of insts issued each cycle (Count)
system.cpu.numIssuedDist::min_value                 0                       # Number of insts issued each cycle (Count)
system.cpu.numIssuedDist::max_value                 8                       # Number of insts issued each cycle (Count)
system.cpu.numIssuedDist::total              20436140                       # Number of insts issued each cycle (Count)
system.cpu.statFuBusy::No_OpClass                   0      0.00%      0.00% # attempts to use FU when none available (Count)
system.cpu.statFuBusy::IntAlu                  133091     13.07%     13.07% # attempts to use FU when none available (Count)
system.cpu.statFuBusy::IntMult                 137868     13.54%     26.61% # attempts to use FU when none available (Count)
system.cpu.statFuBusy::IntDiv                       0      0.00%     26.61% # attempts to use FU when none available (Count)
system.cpu.statFuBusy::FloatAdd                     0      0.00%     26.61% # attempts to use FU when none available (Count)
system.cpu.statFuBusy::FloatCmp                     0      0.00%     26.61% # attempts to use FU when none available (Count)
system.cpu.statFuBusy::FloatCvt                     0      0.00%     26.61% # attempts to use FU when none available (Count)
system.cpu.statFuBusy::FloatMult                    0      0.00%     26.61% # attempts to use FU when none available (Count)
system.cpu.statFuBusy::FloatMultAcc                 0      0.00%     26.61% # attempts to use FU when none available (Count)
system.cpu.statFuBusy::FloatDiv                     0      0.00%     26.61% # attempts to use FU when none available (Count)
system.cpu.statFuBusy::FloatMisc                    0      0.00%     26.61% # attempts to use FU when none available (Count)
system.cpu.statFuBusy::FloatSqrt                    0      0.00%     26.61% # attempts to use FU when none available (Count)
system.cpu.statFuBusy::SimdAdd                      0      0.00%     26.61% # attempts to use FU when none available (Count)
system.cpu.statFuBusy::SimdAddAcc                   0      0.00%     26.61% # attempts to use FU when none available (Count)
system.cpu.statFuBusy::SimdAlu                      1      0.00%     26.61% # attempts to use FU when none available (Count)
system.cpu.statFuBusy::SimdCmp                      0      0.00%     26.61% # attempts to use FU when none available (Count)
system.cpu.statFuBusy::SimdCvt                      0      0.00%     26.61% # attempts to use FU when none available (Count)
system.cpu.statFuBusy::SimdMisc                     0      0.00%     26.61% # attempts to use FU when none available (Count)
system.cpu.statFuBusy::SimdMult                     0      0.00%     26.61% # attempts to use FU when none available (Count)
system.cpu.statFuBusy::SimdMultAcc                  0      0.00%     26.61% # attempts to use FU when none available (Count)
system.cpu.statFuBusy::SimdShift                    0      0.00%     26.61% # attempts to use FU when none available (Count)
system.cpu.statFuBusy::SimdShiftAcc                 0      0.00%     26.61% # attempts to use FU when none available (Count)
system.cpu.statFuBusy::SimdDiv                      0      0.00%     26.61% # attempts to use FU when none available (Count)
system.cpu.statFuBusy::SimdSqrt                     0      0.00%     26.61% # attempts to use FU when none available (Count)
system.cpu.statFuBusy::SimdFloatAdd                 0      0.00%     26.61% # attempts to use FU when none available (Count)
system.cpu.statFuBusy::SimdFloatAlu                 0      0.00%     26.61% # attempts to use FU when none available (Count)
system.cpu.statFuBusy::SimdFloatCmp                 0      0.00%     26.61% # attempts to use FU when none available (Count)
system.cpu.statFuBusy::SimdFloatCvt                 0      0.00%     26.61% # attempts to use FU when none available (Count)
system.cpu.statFuBusy::SimdFloatDiv                 0      0.00%     26.61% # attempts to use FU when none available (Count)
system.cpu.statFuBusy::SimdFloatMisc                0      0.00%     26.61% # attempts to use FU when none available (Count)
system.cpu.statFuBusy::SimdFloatMult                0      0.00%     26.61% # attempts to use FU when none available (Count)
system.cpu.statFuBusy::SimdFloatMultAcc             0      0.00%     26.61% # attempts to use FU when none available (Count)
system.cpu.statFuBusy::SimdFloatSqrt                0      0.00%     26.61% # attempts to use FU when none available (Count)
system.cpu.statFuBusy::SimdReduceAdd                0      0.00%     26.61% # attempts to use FU when none available (Count)
system.cpu.statFuBusy::SimdReduceAlu                0      0.00%     26.61% # attempts to use FU when none available (Count)
system.cpu.statFuBusy::SimdReduceCmp                0      0.00%     26.61% # attempts to use FU when none available (Count)
system.cpu.statFuBusy::SimdFloatReduceAdd            0      0.00%     26.61% # attempts to use FU when none available (Count)
system.cpu.statFuBusy::SimdFloatReduceCmp            0      0.00%     26.61% # attempts to use FU when none available (Count)
system.cpu.statFuBusy::SimdAes                      0      0.00%     26.61% # attempts to use FU when none available (Count)
system.cpu.statFuBusy::SimdAesMix                   0      0.00%     26.61% # attempts to use FU when none available (Count)
system.cpu.statFuBusy::SimdSha1Hash                 0      0.00%     26.61% # attempts to use FU when none available (Count)
system.cpu.statFuBusy::SimdSha1Hash2                0      0.00%     26.61% # attempts to use FU when none available (Count)
system.cpu.statFuBusy::SimdSha256Hash               0      0.00%     26.61% # attempts to use FU when none available (Count)
system.cpu.statFuBusy::SimdSha256Hash2              0      0.00%     26.61% # attempts to use FU when none available (Count)
system.cpu.statFuBusy::SimdShaSigma2                0      0.00%     26.61% # attempts to use FU when none available (Count)
system.cpu.statFuBusy::SimdShaSigma3                0      0.00%     26.61% # attempts to use FU when none available (Count)
system.cpu.statFuBusy::SimdPredAlu                  0      0.00%     26.61% # attempts to use FU when none available (Count)
system.cpu.statFuBusy::MemRead                 392304     38.52%     65.13% # attempts to use FU when none available (Count)
system.cpu.statFuBusy::MemWrite                355128     34.87%    100.00% # attempts to use FU when none available (Count)
system.cpu.statFuBusy::FloatMemRead                 0      0.00%    100.00% # attempts to use FU when none available (Count)
system.cpu.statFuBusy::FloatMemWrite                0      0.00%    100.00% # attempts to use FU when none available (Count)
system.cpu.statFuBusy::IprAccess                    0      0.00%    100.00% # attempts to use FU when none available (Count)
system.cpu.statFuBusy::InstPrefetch                 0      0.00%    100.00% # attempts to use FU when none available (Count)
system.cpu.statIssuedInstType_0::No_OpClass        67258      0.17%      0.17% # Number of instructions issued per FU type, per thread (Count)
system.cpu.statIssuedInstType_0::IntAlu      26596765     65.63%     65.80% # Number of instructions issued per FU type, per thread (Count)
system.cpu.statIssuedInstType_0::IntMult       606859      1.50%     67.29% # Number of instructions issued per FU type, per thread (Count)
system.cpu.statIssuedInstType_0::IntDiv         25991      0.06%     67.36% # Number of instructions issued per FU type, per thread (Count)
system.cpu.statIssuedInstType_0::FloatAdd         2140      0.01%     67.36% # Number of instructions issued per FU type, per thread (Count)
system.cpu.statIssuedInstType_0::FloatCmp        32768      0.08%     67.44% # Number of instructions issued per FU type, per thread (Count)
system.cpu.statIssuedInstType_0::FloatCvt            0      0.00%     67.44% # Number of instructions issued per FU type, per thread (Count)
system.cpu.statIssuedInstType_0::FloatMult         1347      0.00%     67.45% # Number of instructions issued per FU type, per thread (Count)
system.cpu.statIssuedInstType_0::FloatMultAcc            0      0.00%     67.45% # Number of instructions issued per FU type, per thread (Count)
system.cpu.statIssuedInstType_0::FloatDiv            0      0.00%     67.45% # Number of instructions issued per FU type, per thread (Count)
system.cpu.statIssuedInstType_0::FloatMisc        52450      0.13%     67.58% # Number of instructions issued per FU type, per thread (Count)
system.cpu.statIssuedInstType_0::FloatSqrt            0      0.00%     67.58% # Number of instructions issued per FU type, per thread (Count)
system.cpu.statIssuedInstType_0::SimdAdd        65569      0.16%     67.74% # Number of instructions issued per FU type, per thread (Count)
system.cpu.statIssuedInstType_0::SimdAddAcc            0      0.00%     67.74% # Number of instructions issued per FU type, per thread (Count)
system.cpu.statIssuedInstType_0::SimdAlu       131130      0.32%     68.06% # Number of instructions issued per FU type, per thread (Count)
system.cpu.statIssuedInstType_0::SimdCmp       131128      0.32%     68.38% # Number of instructions issued per FU type, per thread (Count)
system.cpu.statIssuedInstType_0::SimdCvt            0      0.00%     68.38% # Number of instructions issued per FU type, per thread (Count)
system.cpu.statIssuedInstType_0::SimdMisc        98349      0.24%     68.63% # Number of instructions issued per FU type, per thread (Count)
system.cpu.statIssuedInstType_0::SimdMult            0      0.00%     68.63% # Number of instructions issued per FU type, per thread (Count)
system.cpu.statIssuedInstType_0::SimdMultAcc            0      0.00%     68.63% # Number of instructions issued per FU type, per thread (Count)
system.cpu.statIssuedInstType_0::SimdShift            0      0.00%     68.63% # Number of instructions issued per FU type, per thread (Count)
system.cpu.statIssuedInstType_0::SimdShiftAcc            0      0.00%     68.63% # Number of instructions issued per FU type, per thread (Count)
system.cpu.statIssuedInstType_0::SimdDiv            0      0.00%     68.63% # Number of instructions issued per FU type, per thread (Count)
system.cpu.statIssuedInstType_0::SimdSqrt            0      0.00%     68.63% # Number of instructions issued per FU type, per thread (Count)
system.cpu.statIssuedInstType_0::SimdFloatAdd            0      0.00%     68.63% # Number of instructions issued per FU type, per thread (Count)
system.cpu.statIssuedInstType_0::SimdFloatAlu            0      0.00%     68.63% # Number of instructions issued per FU type, per thread (Count)
system.cpu.statIssuedInstType_0::SimdFloatCmp            0      0.00%     68.63% # Number of instructions issued per FU type, per thread (Count)
system.cpu.statIssuedInstType_0::SimdFloatCvt            0      0.00%     68.63% # Number of instructions issued per FU type, per thread (Count)
system.cpu.statIssuedInstType_0::SimdFloatDiv            0      0.00%     68.63% # Number of instructions issued per FU type, per thread (Count)
system.cpu.statIssuedInstType_0::SimdFloatMisc            0      0.00%     68.63% # Number of instructions issued per FU type, per thread (Count)
system.cpu.statIssuedInstType_0::SimdFloatMult            0      0.00%     68.63% # Number of instructions issued per FU type, per thread (Count)
system.cpu.statIssuedInstType_0::SimdFloatMultAcc            0      0.00%     68.63% # Number of instructions issued per FU type, per thread (Count)
system.cpu.statIssuedInstType_0::SimdFloatSqrt            0      0.00%     68.63% # Number of instructions issued per FU type, per thread (Count)
system.cpu.statIssuedInstType_0::SimdReduceAdd            0      0.00%     68.63% # Number of instructions issued per FU type, per thread (Count)
system.cpu.statIssuedInstType_0::SimdReduceAlu            0      0.00%     68.63% # Number of instructions issued per FU type, per thread (Count)
system.cpu.statIssuedInstType_0::SimdReduceCmp            0      0.00%     68.63% # Number of instructions issued per FU type, per thread (Count)
system.cpu.statIssuedInstType_0::SimdFloatReduceAdd            0      0.00%     68.63% # Number of instructions issued per FU type, per thread (Count)
system.cpu.statIssuedInstType_0::SimdFloatReduceCmp            0      0.00%     68.63% # Number of instructions issued per FU type, per thread (Count)
system.cpu.statIssuedInstType_0::SimdAes            0      0.00%     68.63% # Number of instructions issued per FU type, per thread (Count)
system.cpu.statIssuedInstType_0::SimdAesMix            0      0.00%     68.63% # Number of instructions issued per FU type, per thread (Count)
system.cpu.statIssuedInstType_0::SimdSha1Hash            0      0.00%     68.63% # Number of instructions issued per FU type, per thread (Count)
system.cpu.statIssuedInstType_0::SimdSha1Hash2            0      0.00%     68.63% # Number of instructions issued per FU type, per thread (Count)
system.cpu.statIssuedInstType_0::SimdSha256Hash            0      0.00%     68.63% # Number of instructions issued per FU type, per thread (Count)
system.cpu.statIssuedInstType_0::SimdSha256Hash2            0      0.00%     68.63% # Number of instructions issued per FU type, per thread (Count)
system.cpu.statIssuedInstType_0::SimdShaSigma2            0      0.00%     68.63% # Number of instructions issued per FU type, per thread (Count)
system.cpu.statIssuedInstType_0::SimdShaSigma3            0      0.00%     68.63% # Number of instructions issued per FU type, per thread (Count)
system.cpu.statIssuedInstType_0::SimdPredAlu            0      0.00%     68.63% # Number of instructions issued per FU type, per thread (Count)
system.cpu.statIssuedInstType_0::MemRead      7207233     17.78%     86.41% # Number of instructions issued per FU type, per thread (Count)
system.cpu.statIssuedInstType_0::MemWrite      5506915     13.59%    100.00% # Number of instructions issued per FU type, per thread (Count)
system.cpu.statIssuedInstType_0::FloatMemRead            0      0.00%    100.00% # Number of instructions issued per FU type, per thread (Count)
system.cpu.statIssuedInstType_0::FloatMemWrite            0      0.00%    100.00% # Number of instructions issued per FU type, per thread (Count)
system.cpu.statIssuedInstType_0::IprAccess            0      0.00%    100.00% # Number of instructions issued per FU type, per thread (Count)
system.cpu.statIssuedInstType_0::InstPrefetch            0      0.00%    100.00% # Number of instructions issued per FU type, per thread (Count)
system.cpu.statIssuedInstType_0::total       40525902                       # Number of instructions issued per FU type, per thread (Count)
system.cpu.issueRate                         1.931470                       # Inst issue rate ((Count/Cycle))
system.cpu.fuBusy                             1018392                       # FU busy when requested (Count)
system.cpu.fuBusyRate                        0.025129                       # FU busy rate (busy events/executed inst) ((Count/Count))
system.cpu.intInstQueueReads                100181414                       # Number of integer instruction queue reads (Count)
system.cpu.intInstQueueWrites                41427862                       # Number of integer instruction queue writes (Count)
system.cpu.intInstQueueWakeupAccesses        38786088                       # Number of integer instruction queue wakeup accesses (Count)
system.cpu.fpInstQueueReads                         0                       # Number of floating instruction queue reads (Count)
system.cpu.fpInstQueueWrites                        0                       # Number of floating instruction queue writes (Count)
system.cpu.fpInstQueueWakeupAccesses                0                       # Number of floating instruction queue wakeup accesses (Count)
system.cpu.vecInstQueueReads                  2449029                       # Number of vector instruction queue reads (Count)
system.cpu.vecInstQueueWrites                 1541221                       # Number of vector instruction queue writes (Count)
system.cpu.vecInstQueueWakeupAccesses         1076593                       # Number of vector instruction queue wakeup accesses (Count)
system.cpu.intAluAccesses                    40277395                       # Number of integer alu accesses (Count)
system.cpu.fpAluAccesses                            0                       # Number of floating point alu accesses (Count)
system.cpu.vecAluAccesses                     1199641                       # Number of vector alu accesses (Count)
system.cpu.numInsts                          40295178                       # Number of executed instructions (Count)
system.cpu.numLoadInsts                       7167902                       # Number of load instructions executed (Count)
system.cpu.numSquashedInsts                    230724                       # Number of squashed instructions skipped in execute (Count)
system.cpu.numSwp                                   0                       # Number of swp insts executed (Count)
system.cpu.numNop                               37523                       # Number of nop insts executed (Count)
system.cpu.numRefs                           12598298                       # Number of memory reference insts executed (Count)
system.cpu.numBranches                        6294854                       # Number of branches executed (Count)
system.cpu.numStoreInsts                      5430396                       # Number of stores executed (Count)
system.cpu.numRate                           1.920474                       # Inst execution rate ((Count/Cycle))
system.cpu.timesIdled                           23016                       # Number of times that the entire CPU went into an idle state and unscheduled itself (Count)
system.cpu.idleCycles                          545752                       # Total number of cycles that the CPU has spent unscheduled due to idling (Cycle)
system.cpu.committedInsts                    34420556                       # Number of Instructions Simulated (Count)
system.cpu.committedOps                      38452508                       # Number of Ops (including micro ops) Simulated (Count)
system.cpu.cpi                               0.609574                       # CPI: Cycles Per Instruction ((Cycle/Count))
system.cpu.totalCpi                          0.609574                       # CPI: Total CPI of All Threads ((Cycle/Count))
system.cpu.ipc                               1.640489                       # IPC: Instructions Per Cycle ((Count/Cycle))
system.cpu.totalIpc                          1.640489                       # IPC: Total IPC of All Threads ((Count/Cycle))
system.cpu.intRegfileReads                   48946672                       # Number of integer regfile reads (Count)
system.cpu.intRegfileWrites                  29181459                       # Number of integer regfile writes (Count)
system.cpu.vecRegfileReads                    1237407                       # number of vector regfile reads (Count)
system.cpu.vecRegfileWrites                    616952                       # number of vector regfile writes (Count)
system.cpu.ccRegfileReads                    10568736                       # number of cc regfile reads (Count)
system.cpu.ccRegfileWrites                   10571294                       # number of cc regfile writes (Count)
system.cpu.miscRegfileReads                  74020473                       # number of misc regfile reads (Count)
system.cpu.miscRegfileWrites                   121585                       # number of misc regfile writes (Count)
system.cpu.MemDepUnit__0.insertedLoads        6884202                       # Number of loads inserted to the mem dependence unit. (Count)
system.cpu.MemDepUnit__0.insertedStores       5775576                       # Number of stores inserted to the mem dependence unit. (Count)
system.cpu.MemDepUnit__0.conflictingLoads      1205232                       # Number of conflicting loads. (Count)
system.cpu.MemDepUnit__0.conflictingStores       548183                       # Number of conflicting stores. (Count)
system.cpu.MemDepUnit__1.insertedLoads              0                       # Number of loads inserted to the mem dependence unit. (Count)
system.cpu.MemDepUnit__1.insertedStores             0                       # Number of stores inserted to the mem dependence unit. (Count)
system.cpu.MemDepUnit__1.conflictingLoads            0                       # Number of conflicting loads. (Count)
system.cpu.MemDepUnit__1.conflictingStores            0                       # Number of conflicting stores. (Count)
system.cpu.MemDepUnit__2.insertedLoads              0                       # Number of loads inserted to the mem dependence unit. (Count)
system.cpu.MemDepUnit__2.insertedStores             0                       # Number of stores inserted to the mem dependence unit. (Count)
system.cpu.MemDepUnit__2.conflictingLoads            0                       # Number of conflicting loads. (Count)
system.cpu.MemDepUnit__2.conflictingStores            0                       # Number of conflicting stores. (Count)
system.cpu.MemDepUnit__3.insertedLoads              0                       # Number of loads inserted to the mem dependence unit. (Count)
system.cpu.MemDepUnit__3.insertedStores             0                       # Number of stores inserted to the mem dependence unit. (Count)
system.cpu.MemDepUnit__3.conflictingLoads            0                       # Number of conflicting loads. (Count)
system.cpu.MemDepUnit__3.conflictingStores            0                       # Number of conflicting stores. (Count)
system.cpu.branchPred.lookups                 6616249                       # Number of BP lookups (Count)
system.cpu.branchPred.condPredicted           4656014                       # Number of conditional branches predicted (Count)
system.cpu.branchPred.condIncorrect             98537                       # Number of conditional branches incorrect (Count)
system.cpu.branchPred.BTBLookups              3395300                       # Number of BTB lookups (Count)
system.cpu.branchPred.BTBHits                 3335553                       # Number of BTB hits (Count)
system.cpu.branchPred.BTBHitRatio            0.982403                       # BTB Hit Ratio (Ratio)
system.cpu.branchPred.RASUsed                  608558                       # Number of times the RAS was used to get a target. (Count)
system.cpu.branchPred.RASIncorrect                 33                       # Number of incorrect RAS predictions. (Count)
system.cpu.branchPred.indirectLookups          143708                       # Number of indirect predictor lookups. (Count)
system.cpu.branchPred.indirectHits             126669                       # Number of indirect target hits. (Count)
system.cpu.branchPred.indirectMisses            17039                       # Number of indirect misses. (Count)
system.cpu.branchPred.indirectMispredicted          194                       # Number of mispredicted indirect branches. (Count)
system.cpu.commit.commitSquashedInsts         2250075                       # The number of squashed insts skipped by commit (Count)
system.cpu.commit.commitNonSpecStalls           68990                       # The number of times commit has been forced to stall to communicate backwards (Count)
system.cpu.commit.branchMispredicts             62944                       # The number of times a branch was mispredicted (Count)
system.cpu.commit.numCommittedDist::samples     20111755                       # Number of insts commited each cycle (Count)
system.cpu.commit.numCommittedDist::mean     1.913751                       # Number of insts commited each cycle (Count)
system.cpu.commit.numCommittedDist::stdev     2.829326                       # Number of insts commited each cycle (Count)
system.cpu.commit.numCommittedDist::underflows            0      0.00%      0.00% # Number of insts commited each cycle (Count)
system.cpu.commit.numCommittedDist::0        10508499     52.25%     52.25% # Number of insts commited each cycle (Count)
system.cpu.commit.numCommittedDist::1         2672641     13.29%     65.54% # Number of insts commited each cycle (Count)
system.cpu.commit.numCommittedDist::2         1893069      9.41%     74.95% # Number of insts commited each cycle (Count)
system.cpu.commit.numCommittedDist::3          881365      4.38%     79.33% # Number of insts commited each cycle (Count)
system.cpu.commit.numCommittedDist::4          536202      2.67%     82.00% # Number of insts commited each cycle (Count)
system.cpu.commit.numCommittedDist::5          190002      0.94%     82.95% # Number of insts commited each cycle (Count)
system.cpu.commit.numCommittedDist::6          429330      2.13%     85.08% # Number of insts commited each cycle (Count)
system.cpu.commit.numCommittedDist::7          289949      1.44%     86.52% # Number of insts commited each cycle (Count)
system.cpu.commit.numCommittedDist::8         2710698     13.48%    100.00% # Number of insts commited each cycle (Count)
system.cpu.commit.numCommittedDist::overflows            0      0.00%    100.00% # Number of insts commited each cycle (Count)
system.cpu.commit.numCommittedDist::min_value            0                       # Number of insts commited each cycle (Count)
system.cpu.commit.numCommittedDist::max_value            8                       # Number of insts commited each cycle (Count)
system.cpu.commit.numCommittedDist::total     20111755                       # Number of insts commited each cycle (Count)
system.cpu.commit.instsCommitted             34456947                       # Number of instructions committed (Count)
system.cpu.commit.opsCommitted               38488899                       # Number of ops (including micro ops) committed (Count)
system.cpu.commit.memRefs                    11731649                       # Number of memory references committed (Count)
system.cpu.commit.loads                       6590464                       # Number of loads committed (Count)
system.cpu.commit.amos                          34466                       # Number of atomic instructions committed (Count)
system.cpu.commit.membars                       34476                       # Number of memory barriers committed (Count)
system.cpu.commit.branches                    6177759                       # Number of branches committed (Count)
system.cpu.commit.vectorInstructions           959297                       # Number of committed Vector instructions. (Count)
system.cpu.commit.floating                          0                       # Number of committed floating point instructions. (Count)
system.cpu.commit.integer                    34691570                       # Number of committed integer instructions. (Count)
system.cpu.commit.functionCalls                594237                       # Number of function calls committed. (Count)
system.cpu.commit.committedInstType_0::No_OpClass        67249      0.17%      0.17% # Class of committed instruction (Count)
system.cpu.commit.committedInstType_0::IntAlu     25543816     66.37%     66.54% # Class of committed instruction (Count)
system.cpu.commit.committedInstType_0::IntMult       606350      1.58%     68.12% # Class of committed instruction (Count)
system.cpu.commit.committedInstType_0::IntDiv        25925      0.07%     68.18% # Class of committed instruction (Count)
system.cpu.commit.committedInstType_0::FloatAdd         2140      0.01%     68.19% # Class of committed instruction (Count)
system.cpu.commit.committedInstType_0::FloatCmp        32768      0.09%     68.27% # Class of committed instruction (Count)
system.cpu.commit.committedInstType_0::FloatCvt            0      0.00%     68.27% # Class of committed instruction (Count)
system.cpu.commit.committedInstType_0::FloatMult         1320      0.00%     68.28% # Class of committed instruction (Count)
system.cpu.commit.committedInstType_0::FloatMultAcc            0      0.00%     68.28% # Class of committed instruction (Count)
system.cpu.commit.committedInstType_0::FloatDiv            0      0.00%     68.28% # Class of committed instruction (Count)
system.cpu.commit.committedInstType_0::FloatMisc        51612      0.13%     68.41% # Class of committed instruction (Count)
system.cpu.commit.committedInstType_0::FloatSqrt            0      0.00%     68.41% # Class of committed instruction (Count)
system.cpu.commit.committedInstType_0::SimdAdd        65556      0.17%     68.58% # Class of committed instruction (Count)
system.cpu.commit.committedInstType_0::SimdAddAcc            0      0.00%     68.58% # Class of committed instruction (Count)
system.cpu.commit.committedInstType_0::SimdAlu       131098      0.34%     68.92% # Class of committed instruction (Count)
system.cpu.commit.committedInstType_0::SimdCmp       131092      0.34%     69.26% # Class of committed instruction (Count)
system.cpu.commit.committedInstType_0::SimdCvt            0      0.00%     69.26% # Class of committed instruction (Count)
system.cpu.commit.committedInstType_0::SimdMisc        98324      0.26%     69.52% # Class of committed instruction (Count)
system.cpu.commit.committedInstType_0::SimdMult            0      0.00%     69.52% # Class of committed instruction (Count)
system.cpu.commit.committedInstType_0::SimdMultAcc            0      0.00%     69.52% # Class of committed instruction (Count)
system.cpu.commit.committedInstType_0::SimdShift            0      0.00%     69.52% # Class of committed instruction (Count)
system.cpu.commit.committedInstType_0::SimdShiftAcc            0      0.00%     69.52% # Class of committed instruction (Count)
system.cpu.commit.committedInstType_0::SimdDiv            0      0.00%     69.52% # Class of committed instruction (Count)
system.cpu.commit.committedInstType_0::SimdSqrt            0      0.00%     69.52% # Class of committed instruction (Count)
system.cpu.commit.committedInstType_0::SimdFloatAdd            0      0.00%     69.52% # Class of committed instruction (Count)
system.cpu.commit.committedInstType_0::SimdFloatAlu            0      0.00%     69.52% # Class of committed instruction (Count)
system.cpu.commit.committedInstType_0::SimdFloatCmp            0      0.00%     69.52% # Class of committed instruction (Count)
system.cpu.commit.committedInstType_0::SimdFloatCvt            0      0.00%     69.52% # Class of committed instruction (Count)
system.cpu.commit.committedInstType_0::SimdFloatDiv            0      0.00%     69.52% # Class of committed instruction (Count)
system.cpu.commit.committedInstType_0::SimdFloatMisc            0      0.00%     69.52% # Class of committed instruction (Count)
system.cpu.commit.committedInstType_0::SimdFloatMult            0      0.00%     69.52% # Class of committed instruction (Count)
system.cpu.commit.committedInstType_0::SimdFloatMultAcc            0      0.00%     69.52% # Class of committed instruction (Count)
system.cpu.commit.committedInstType_0::SimdFloatSqrt            0      0.00%     69.52% # Class of committed instruction (Count)
system.cpu.commit.committedInstType_0::SimdReduceAdd            0      0.00%     69.52% # Class of committed instruction (Count)
system.cpu.commit.committedInstType_0::SimdReduceAlu            0      0.00%     69.52% # Class of committed instruction (Count)
system.cpu.commit.committedInstType_0::SimdReduceCmp            0      0.00%     69.52% # Class of committed instruction (Count)
system.cpu.commit.committedInstType_0::SimdFloatReduceAdd            0      0.00%     69.52% # Class of committed instruction (Count)
system.cpu.commit.committedInstType_0::SimdFloatReduceCmp            0      0.00%     69.52% # Class of committed instruction (Count)
system.cpu.commit.committedInstType_0::SimdAes            0      0.00%     69.52% # Class of committed instruction (Count)
system.cpu.commit.committedInstType_0::SimdAesMix            0      0.00%     69.52% # Class of committed instruction (Count)
system.cpu.commit.committedInstType_0::SimdSha1Hash            0      0.00%     69.52% # Class of committed instruction (Count)
system.cpu.commit.committedInstType_0::SimdSha1Hash2            0      0.00%     69.52% # Class of committed instruction (Count)
system.cpu.commit.committedInstType_0::SimdSha256Hash            0      0.00%     69.52% # Class of committed instruction (Count)
system.cpu.commit.committedInstType_0::SimdSha256Hash2            0      0.00%     69.52% # Class of committed instruction (Count)
system.cpu.commit.committedInstType_0::SimdShaSigma2            0      0.00%     69.52% # Class of committed instruction (Count)
system.cpu.commit.committedInstType_0::SimdShaSigma3            0      0.00%     69.52% # Class of committed instruction (Count)
system.cpu.commit.committedInstType_0::SimdPredAlu            0      0.00%     69.52% # Class of committed instruction (Count)
system.cpu.commit.committedInstType_0::MemRead      6590464     17.12%     86.64% # Class of committed instruction (Count)
system.cpu.commit.committedInstType_0::MemWrite      5141185     13.36%    100.00% # Class of committed instruction (Count)
system.cpu.commit.committedInstType_0::FloatMemRead            0      0.00%    100.00% # Class of committed instruction (Count)
system.cpu.commit.committedInstType_0::FloatMemWrite            0      0.00%    100.00% # Class of committed instruction (Count)
system.cpu.commit.committedInstType_0::IprAccess            0      0.00%    100.00% # Class of committed instruction (Count)
system.cpu.commit.committedInstType_0::InstPrefetch            0      0.00%    100.00% # Class of committed instruction (Count)
system.cpu.commit.committedInstType_0::total     38488899                       # Class of committed instruction (Count)
system.cpu.commit.commitEligibleSamples       2710698                       # number cycles where commit BW limit reached (Cycle)
system.cpu.dcache.demandHits::cpu.data       10731604                       # number of demand (read+write) hits (Count)
system.cpu.dcache.demandHits::total          10731604                       # number of demand (read+write) hits (Count)
system.cpu.dcache.overallHits::cpu.data      10770366                       # number of overall hits (Count)
system.cpu.dcache.overallHits::total         10770366                       # number of overall hits (Count)
system.cpu.dcache.demandMisses::cpu.data       142164                       # number of demand (read+write) misses (Count)
system.cpu.dcache.demandMisses::total          142164                       # number of demand (read+write) misses (Count)
system.cpu.dcache.overallMisses::cpu.data       142168                       # number of overall misses (Count)
system.cpu.dcache.overallMisses::total         142168                       # number of overall misses (Count)
system.cpu.dcache.demandMissLatency::cpu.data  10133168454                       # number of demand (read+write) miss ticks (Tick)
system.cpu.dcache.demandMissLatency::total  10133168454                       # number of demand (read+write) miss ticks (Tick)
system.cpu.dcache.overallMissLatency::cpu.data  10133168454                       # number of overall miss ticks (Tick)
system.cpu.dcache.overallMissLatency::total  10133168454                       # number of overall miss ticks (Tick)
system.cpu.dcache.demandAccesses::cpu.data     10873768                       # number of demand (read+write) accesses (Count)
system.cpu.dcache.demandAccesses::total      10873768                       # number of demand (read+write) accesses (Count)
system.cpu.dcache.overallAccesses::cpu.data     10912534                       # number of overall (read+write) accesses (Count)
system.cpu.dcache.overallAccesses::total     10912534                       # number of overall (read+write) accesses (Count)
system.cpu.dcache.demandMissRate::cpu.data     0.013074                       # miss rate for demand accesses (Ratio)
system.cpu.dcache.demandMissRate::total      0.013074                       # miss rate for demand accesses (Ratio)
system.cpu.dcache.overallMissRate::cpu.data     0.013028                       # miss rate for overall accesses (Ratio)
system.cpu.dcache.overallMissRate::total     0.013028                       # miss rate for overall accesses (Ratio)
system.cpu.dcache.demandAvgMissLatency::cpu.data 71278.020132                       # average overall miss latency ((Cycle/Count))
system.cpu.dcache.demandAvgMissLatency::total 71278.020132                       # average overall miss latency ((Cycle/Count))
system.cpu.dcache.overallAvgMissLatency::cpu.data 71276.014673                       # average overall miss latency ((Cycle/Count))
system.cpu.dcache.overallAvgMissLatency::total 71276.014673                       # average overall miss latency ((Cycle/Count))
system.cpu.dcache.blockedCycles::no_mshrs       802586                       # number of cycles access was blocked (Cycle)
system.cpu.dcache.blockedCycles::no_targets            0                       # number of cycles access was blocked (Cycle)
system.cpu.dcache.blockedCauses::no_mshrs        17635                       # number of times access was blocked (Count)
system.cpu.dcache.blockedCauses::no_targets            0                       # number of times access was blocked (Count)
system.cpu.dcache.avgBlocked::no_mshrs      45.510972                       # average number of cycles each access was blocked ((Cycle/Count))
system.cpu.dcache.avgBlocked::no_targets          nan                       # average number of cycles each access was blocked ((Cycle/Count))
system.cpu.dcache.writebacks::writebacks        12101                       # number of writebacks (Count)
system.cpu.dcache.writebacks::total             12101                       # number of writebacks (Count)
system.cpu.dcache.demandMshrHits::cpu.data        85966                       # number of demand (read+write) MSHR hits (Count)
system.cpu.dcache.demandMshrHits::total         85966                       # number of demand (read+write) MSHR hits (Count)
system.cpu.dcache.overallMshrHits::cpu.data        85966                       # number of overall MSHR hits (Count)
system.cpu.dcache.overallMshrHits::total        85966                       # number of overall MSHR hits (Count)
system.cpu.dcache.demandMshrMisses::cpu.data        56198                       # number of demand (read+write) MSHR misses (Count)
system.cpu.dcache.demandMshrMisses::total        56198                       # number of demand (read+write) MSHR misses (Count)
system.cpu.dcache.overallMshrMisses::cpu.data        56202                       # number of overall MSHR misses (Count)
system.cpu.dcache.overallMshrMisses::total        56202                       # number of overall MSHR misses (Count)
system.cpu.dcache.demandMshrMissLatency::cpu.data   3834988779                       # number of demand (read+write) MSHR miss ticks (Tick)
system.cpu.dcache.demandMshrMissLatency::total   3834988779                       # number of demand (read+write) MSHR miss ticks (Tick)
system.cpu.dcache.overallMshrMissLatency::cpu.data   3835431279                       # number of overall MSHR miss ticks (Tick)
system.cpu.dcache.overallMshrMissLatency::total   3835431279                       # number of overall MSHR miss ticks (Tick)
system.cpu.dcache.demandMshrMissRate::cpu.data     0.005168                       # mshr miss ratio for demand accesses (Ratio)
system.cpu.dcache.demandMshrMissRate::total     0.005168                       # mshr miss ratio for demand accesses (Ratio)
system.cpu.dcache.overallMshrMissRate::cpu.data     0.005150                       # mshr miss ratio for overall accesses (Ratio)
system.cpu.dcache.overallMshrMissRate::total     0.005150                       # mshr miss ratio for overall accesses (Ratio)
system.cpu.dcache.demandAvgMshrMissLatency::cpu.data 68240.662995                       # average overall mshr miss latency ((Cycle/Count))
system.cpu.dcache.demandAvgMshrMissLatency::total 68240.662995                       # average overall mshr miss latency ((Cycle/Count))
system.cpu.dcache.overallAvgMshrMissLatency::cpu.data 68243.679567                       # average overall mshr miss latency ((Cycle/Count))
system.cpu.dcache.overallAvgMshrMissLatency::total 68243.679567                       # average overall mshr miss latency ((Cycle/Count))
system.cpu.dcache.replacements                  55693                       # number of replacements (Count)
system.cpu.dcache.LoadLockedReq.hits::cpu.data           39                       # number of LoadLockedReq hits (Count)
system.cpu.dcache.LoadLockedReq.hits::total           39                       # number of LoadLockedReq hits (Count)
system.cpu.dcache.LoadLockedReq.misses::cpu.data            4                       # number of LoadLockedReq misses (Count)
system.cpu.dcache.LoadLockedReq.misses::total            4                       # number of LoadLockedReq misses (Count)
system.cpu.dcache.LoadLockedReq.missLatency::cpu.data       346000                       # number of LoadLockedReq miss ticks (Tick)
system.cpu.dcache.LoadLockedReq.missLatency::total       346000                       # number of LoadLockedReq miss ticks (Tick)
system.cpu.dcache.LoadLockedReq.accesses::cpu.data           43                       # number of LoadLockedReq accesses(hits+misses) (Count)
system.cpu.dcache.LoadLockedReq.accesses::total           43                       # number of LoadLockedReq accesses(hits+misses) (Count)
system.cpu.dcache.LoadLockedReq.missRate::cpu.data     0.093023                       # miss rate for LoadLockedReq accesses (Ratio)
system.cpu.dcache.LoadLockedReq.missRate::total     0.093023                       # miss rate for LoadLockedReq accesses (Ratio)
system.cpu.dcache.LoadLockedReq.avgMissLatency::cpu.data        86500                       # average LoadLockedReq miss latency ((Tick/Count))
system.cpu.dcache.LoadLockedReq.avgMissLatency::total        86500                       # average LoadLockedReq miss latency ((Tick/Count))
system.cpu.dcache.LoadLockedReq.mshrHits::cpu.data            1                       # number of LoadLockedReq MSHR hits (Count)
system.cpu.dcache.LoadLockedReq.mshrHits::total            1                       # number of LoadLockedReq MSHR hits (Count)
system.cpu.dcache.LoadLockedReq.mshrMisses::cpu.data            3                       # number of LoadLockedReq MSHR misses (Count)
system.cpu.dcache.LoadLockedReq.mshrMisses::total            3                       # number of LoadLockedReq MSHR misses (Count)
system.cpu.dcache.LoadLockedReq.mshrMissLatency::cpu.data       325500                       # number of LoadLockedReq MSHR miss ticks (Tick)
system.cpu.dcache.LoadLockedReq.mshrMissLatency::total       325500                       # number of LoadLockedReq MSHR miss ticks (Tick)
system.cpu.dcache.LoadLockedReq.mshrMissRate::cpu.data     0.069767                       # mshr miss rate for LoadLockedReq accesses (Ratio)
system.cpu.dcache.LoadLockedReq.mshrMissRate::total     0.069767                       # mshr miss rate for LoadLockedReq accesses (Ratio)
system.cpu.dcache.LoadLockedReq.avgMshrMissLatency::cpu.data       108500                       # average LoadLockedReq mshr miss latency ((Tick/Count))
system.cpu.dcache.LoadLockedReq.avgMshrMissLatency::total       108500                       # average LoadLockedReq mshr miss latency ((Tick/Count))
system.cpu.dcache.ReadReq.hits::cpu.data      5692547                       # number of ReadReq hits (Count)
system.cpu.dcache.ReadReq.hits::total         5692547                       # number of ReadReq hits (Count)
system.cpu.dcache.ReadReq.misses::cpu.data        74506                       # number of ReadReq misses (Count)
system.cpu.dcache.ReadReq.misses::total         74506                       # number of ReadReq misses (Count)
system.cpu.dcache.ReadReq.missLatency::cpu.data   5334565000                       # number of ReadReq miss ticks (Tick)
system.cpu.dcache.ReadReq.missLatency::total   5334565000                       # number of ReadReq miss ticks (Tick)
system.cpu.dcache.ReadReq.accesses::cpu.data      5767053                       # number of ReadReq accesses(hits+misses) (Count)
system.cpu.dcache.ReadReq.accesses::total      5767053                       # number of ReadReq accesses(hits+misses) (Count)
system.cpu.dcache.ReadReq.missRate::cpu.data     0.012919                       # miss rate for ReadReq accesses (Ratio)
system.cpu.dcache.ReadReq.missRate::total     0.012919                       # miss rate for ReadReq accesses (Ratio)
system.cpu.dcache.ReadReq.avgMissLatency::cpu.data 71599.132956                       # average ReadReq miss latency ((Tick/Count))
system.cpu.dcache.ReadReq.avgMissLatency::total 71599.132956                       # average ReadReq miss latency ((Tick/Count))
system.cpu.dcache.ReadReq.mshrHits::cpu.data        29465                       # number of ReadReq MSHR hits (Count)
system.cpu.dcache.ReadReq.mshrHits::total        29465                       # number of ReadReq MSHR hits (Count)
system.cpu.dcache.ReadReq.mshrMisses::cpu.data        45041                       # number of ReadReq MSHR misses (Count)
system.cpu.dcache.ReadReq.mshrMisses::total        45041                       # number of ReadReq MSHR misses (Count)
system.cpu.dcache.ReadReq.mshrMissLatency::cpu.data   2957063000                       # number of ReadReq MSHR miss ticks (Tick)
system.cpu.dcache.ReadReq.mshrMissLatency::total   2957063000                       # number of ReadReq MSHR miss ticks (Tick)
system.cpu.dcache.ReadReq.mshrMissRate::cpu.data     0.007810                       # mshr miss rate for ReadReq accesses (Ratio)
system.cpu.dcache.ReadReq.mshrMissRate::total     0.007810                       # mshr miss rate for ReadReq accesses (Ratio)
system.cpu.dcache.ReadReq.avgMshrMissLatency::cpu.data 65652.694212                       # average ReadReq mshr miss latency ((Tick/Count))
system.cpu.dcache.ReadReq.avgMshrMissLatency::total 65652.694212                       # average ReadReq mshr miss latency ((Tick/Count))
system.cpu.dcache.SoftPFReq.hits::cpu.data        38762                       # number of SoftPFReq hits (Count)
system.cpu.dcache.SoftPFReq.hits::total         38762                       # number of SoftPFReq hits (Count)
system.cpu.dcache.SoftPFReq.misses::cpu.data            4                       # number of SoftPFReq misses (Count)
system.cpu.dcache.SoftPFReq.misses::total            4                       # number of SoftPFReq misses (Count)
system.cpu.dcache.SoftPFReq.accesses::cpu.data        38766                       # number of SoftPFReq accesses(hits+misses) (Count)
system.cpu.dcache.SoftPFReq.accesses::total        38766                       # number of SoftPFReq accesses(hits+misses) (Count)
system.cpu.dcache.SoftPFReq.missRate::cpu.data     0.000103                       # miss rate for SoftPFReq accesses (Ratio)
system.cpu.dcache.SoftPFReq.missRate::total     0.000103                       # miss rate for SoftPFReq accesses (Ratio)
system.cpu.dcache.SoftPFReq.mshrMisses::cpu.data            4                       # number of SoftPFReq MSHR misses (Count)
system.cpu.dcache.SoftPFReq.mshrMisses::total            4                       # number of SoftPFReq MSHR misses (Count)
system.cpu.dcache.SoftPFReq.mshrMissLatency::cpu.data       442500                       # number of SoftPFReq MSHR miss ticks (Tick)
system.cpu.dcache.SoftPFReq.mshrMissLatency::total       442500                       # number of SoftPFReq MSHR miss ticks (Tick)
system.cpu.dcache.SoftPFReq.mshrMissRate::cpu.data     0.000103                       # mshr miss rate for SoftPFReq accesses (Ratio)
system.cpu.dcache.SoftPFReq.mshrMissRate::total     0.000103                       # mshr miss rate for SoftPFReq accesses (Ratio)
system.cpu.dcache.SoftPFReq.avgMshrMissLatency::cpu.data       110625                       # average SoftPFReq mshr miss latency ((Tick/Count))
system.cpu.dcache.SoftPFReq.avgMshrMissLatency::total       110625                       # average SoftPFReq mshr miss latency ((Tick/Count))
system.cpu.dcache.StoreCondReq.hits::cpu.data           10                       # number of StoreCondReq hits (Count)
system.cpu.dcache.StoreCondReq.hits::total           10                       # number of StoreCondReq hits (Count)
system.cpu.dcache.StoreCondReq.accesses::cpu.data           10                       # number of StoreCondReq accesses(hits+misses) (Count)
system.cpu.dcache.StoreCondReq.accesses::total           10                       # number of StoreCondReq accesses(hits+misses) (Count)
system.cpu.dcache.SwapReq.hits::cpu.data        34465                       # number of SwapReq hits (Count)
system.cpu.dcache.SwapReq.hits::total           34465                       # number of SwapReq hits (Count)
system.cpu.dcache.SwapReq.misses::cpu.data            1                       # number of SwapReq misses (Count)
system.cpu.dcache.SwapReq.misses::total             1                       # number of SwapReq misses (Count)
system.cpu.dcache.SwapReq.missLatency::cpu.data        95000                       # number of SwapReq miss ticks (Tick)
system.cpu.dcache.SwapReq.missLatency::total        95000                       # number of SwapReq miss ticks (Tick)
system.cpu.dcache.SwapReq.accesses::cpu.data        34466                       # number of SwapReq accesses(hits+misses) (Count)
system.cpu.dcache.SwapReq.accesses::total        34466                       # number of SwapReq accesses(hits+misses) (Count)
system.cpu.dcache.SwapReq.missRate::cpu.data     0.000029                       # miss rate for SwapReq accesses (Ratio)
system.cpu.dcache.SwapReq.missRate::total     0.000029                       # miss rate for SwapReq accesses (Ratio)
system.cpu.dcache.SwapReq.avgMissLatency::cpu.data        95000                       # average SwapReq miss latency ((Tick/Count))
system.cpu.dcache.SwapReq.avgMissLatency::total        95000                       # average SwapReq miss latency ((Tick/Count))
system.cpu.dcache.SwapReq.mshrHits::cpu.data            1                       # number of SwapReq MSHR hits (Count)
system.cpu.dcache.SwapReq.mshrHits::total            1                       # number of SwapReq MSHR hits (Count)
system.cpu.dcache.WriteLineReq.misses::cpu.data         2054                       # number of WriteLineReq misses (Count)
system.cpu.dcache.WriteLineReq.misses::total         2054                       # number of WriteLineReq misses (Count)
system.cpu.dcache.WriteLineReq.missLatency::cpu.data     39781912                       # number of WriteLineReq miss ticks (Tick)
system.cpu.dcache.WriteLineReq.missLatency::total     39781912                       # number of WriteLineReq miss ticks (Tick)
system.cpu.dcache.WriteLineReq.accesses::cpu.data         2054                       # number of WriteLineReq accesses(hits+misses) (Count)
system.cpu.dcache.WriteLineReq.accesses::total         2054                       # number of WriteLineReq accesses(hits+misses) (Count)
system.cpu.dcache.WriteLineReq.missRate::cpu.data            1                       # miss rate for WriteLineReq accesses (Ratio)
system.cpu.dcache.WriteLineReq.missRate::total            1                       # miss rate for WriteLineReq accesses (Ratio)
system.cpu.dcache.WriteLineReq.avgMissLatency::cpu.data 19368.019474                       # average WriteLineReq miss latency ((Tick/Count))
system.cpu.dcache.WriteLineReq.avgMissLatency::total 19368.019474                       # average WriteLineReq miss latency ((Tick/Count))
system.cpu.dcache.WriteLineReq.mshrMisses::cpu.data         2054                       # number of WriteLineReq MSHR misses (Count)
system.cpu.dcache.WriteLineReq.mshrMisses::total         2054                       # number of WriteLineReq MSHR misses (Count)
system.cpu.dcache.WriteLineReq.mshrMissLatency::cpu.data     37727912                       # number of WriteLineReq MSHR miss ticks (Tick)
system.cpu.dcache.WriteLineReq.mshrMissLatency::total     37727912                       # number of WriteLineReq MSHR miss ticks (Tick)
system.cpu.dcache.WriteLineReq.mshrMissRate::cpu.data            1                       # mshr miss rate for WriteLineReq accesses (Ratio)
system.cpu.dcache.WriteLineReq.mshrMissRate::total            1                       # mshr miss rate for WriteLineReq accesses (Ratio)
system.cpu.dcache.WriteLineReq.avgMshrMissLatency::cpu.data 18368.019474                       # average WriteLineReq mshr miss latency ((Tick/Count))
system.cpu.dcache.WriteLineReq.avgMshrMissLatency::total 18368.019474                       # average WriteLineReq mshr miss latency ((Tick/Count))
system.cpu.dcache.WriteReq.hits::cpu.data      5039057                       # number of WriteReq hits (Count)
system.cpu.dcache.WriteReq.hits::total        5039057                       # number of WriteReq hits (Count)
system.cpu.dcache.WriteReq.misses::cpu.data        65604                       # number of WriteReq misses (Count)
system.cpu.dcache.WriteReq.misses::total        65604                       # number of WriteReq misses (Count)
system.cpu.dcache.WriteReq.missLatency::cpu.data   4758821542                       # number of WriteReq miss ticks (Tick)
system.cpu.dcache.WriteReq.missLatency::total   4758821542                       # number of WriteReq miss ticks (Tick)
system.cpu.dcache.WriteReq.accesses::cpu.data      5104661                       # number of WriteReq accesses(hits+misses) (Count)
system.cpu.dcache.WriteReq.accesses::total      5104661                       # number of WriteReq accesses(hits+misses) (Count)
system.cpu.dcache.WriteReq.missRate::cpu.data     0.012852                       # miss rate for WriteReq accesses (Ratio)
system.cpu.dcache.WriteReq.missRate::total     0.012852                       # miss rate for WriteReq accesses (Ratio)
system.cpu.dcache.WriteReq.avgMissLatency::cpu.data 72538.588226                       # average WriteReq miss latency ((Tick/Count))
system.cpu.dcache.WriteReq.avgMissLatency::total 72538.588226                       # average WriteReq miss latency ((Tick/Count))
system.cpu.dcache.WriteReq.mshrHits::cpu.data        56501                       # number of WriteReq MSHR hits (Count)
system.cpu.dcache.WriteReq.mshrHits::total        56501                       # number of WriteReq MSHR hits (Count)
system.cpu.dcache.WriteReq.mshrMisses::cpu.data         9103                       # number of WriteReq MSHR misses (Count)
system.cpu.dcache.WriteReq.mshrMisses::total         9103                       # number of WriteReq MSHR misses (Count)
system.cpu.dcache.WriteReq.mshrMissLatency::cpu.data    840197867                       # number of WriteReq MSHR miss ticks (Tick)
system.cpu.dcache.WriteReq.mshrMissLatency::total    840197867                       # number of WriteReq MSHR miss ticks (Tick)
system.cpu.dcache.WriteReq.mshrMissRate::cpu.data     0.001783                       # mshr miss rate for WriteReq accesses (Ratio)
system.cpu.dcache.WriteReq.mshrMissRate::total     0.001783                       # mshr miss rate for WriteReq accesses (Ratio)
system.cpu.dcache.WriteReq.avgMshrMissLatency::cpu.data 92299.007690                       # average WriteReq mshr miss latency ((Tick/Count))
system.cpu.dcache.WriteReq.avgMshrMissLatency::total 92299.007690                       # average WriteReq mshr miss latency ((Tick/Count))
system.cpu.dcache.power_state.pwrStateResidencyTicks::UNDEFINED  10490945500                       # Cumulative time (in ticks) in various power states (Tick)
system.cpu.dcache.tags.tagsInUse           510.593970                       # Average ticks per tags in use ((Tick/Count))
system.cpu.dcache.tags.totalRefs             10861085                       # Total number of references to valid blocks. (Count)
system.cpu.dcache.tags.sampledRefs              56205                       # Sample count of references to valid blocks. (Count)
system.cpu.dcache.tags.avgRefs             193.240548                       # Average number of references to valid blocks. ((Count/Count))
system.cpu.dcache.tags.warmupTick              145000                       # The tick when the warmup percentage was hit. (Tick)
system.cpu.dcache.tags.occupancies::cpu.data   510.593970                       # Average occupied blocks per tick, per requestor ((Count/Tick))
system.cpu.dcache.tags.avgOccs::cpu.data     0.997254                       # Average percentage of cache occupancy ((Ratio/Tick))
system.cpu.dcache.tags.avgOccs::total        0.997254                       # Average percentage of cache occupancy ((Ratio/Tick))
system.cpu.dcache.tags.occupanciesTaskId::1024          512                       # Occupied blocks per task id (Count)
system.cpu.dcache.tags.ageTaskId_1024::0           76                       # Occupied blocks per task id, per block age (Count)
system.cpu.dcache.tags.ageTaskId_1024::1           16                       # Occupied blocks per task id, per block age (Count)
system.cpu.dcache.tags.ageTaskId_1024::2          175                       # Occupied blocks per task id, per block age (Count)
system.cpu.dcache.tags.ageTaskId_1024::3          245                       # Occupied blocks per task id, per block age (Count)
system.cpu.dcache.tags.ratioOccsTaskId::1024            1                       # Ratio of occupied blocks and all blocks, per task id (Ratio)
system.cpu.dcache.tags.tagAccesses           21950311                       # Number of tag accesses (Count)
system.cpu.dcache.tags.dataAccesses          21950311                       # Number of data accesses (Count)
system.cpu.dcache.tags.power_state.pwrStateResidencyTicks::UNDEFINED  10490945500                       # Cumulative time (in ticks) in various power states (Tick)
system.cpu.decode.idleCycles                  5315867                       # Number of cycles decode is idle (Cycle)
system.cpu.decode.blockedCycles               7442570                       # Number of cycles decode is blocked (Cycle)
system.cpu.decode.runCycles                   7151691                       # Number of cycles decode is running (Cycle)
system.cpu.decode.unblockCycles                444366                       # Number of cycles decode is unblocking (Cycle)
system.cpu.decode.squashCycles                  81646                       # Number of cycles decode is squashing (Cycle)
system.cpu.decode.branchResolved              3339745                       # Number of times decode resolved a branch (Count)
system.cpu.decode.branchMispred                 35602                       # Number of times decode detected a branch misprediction (Count)
system.cpu.decode.decodedInsts               41493525                       # Number of instructions handled by decode (Count)
system.cpu.decode.squashedInsts                 13364                       # Number of squashed instructions handled by decode (Count)
system.cpu.fetch.icacheStallCycles            6164490                       # Number of cycles fetch is stalled on an Icache miss (Cycle)
system.cpu.fetch.insts                       37319855                       # Number of instructions fetch has processed (Count)
system.cpu.fetch.branches                     6616249                       # Number of branches that fetch encountered (Count)
system.cpu.fetch.predictedBranches            4070780                       # Number of branches that fetch has predicted taken (Count)
system.cpu.fetch.cycles                      14154345                       # Number of cycles fetch has run and was not squashing or blocked (Cycle)
system.cpu.fetch.squashCycles                  234478                       # Number of cycles fetch has spent squashing (Cycle)
system.cpu.fetch.miscStallCycles                    4                       # Number of cycles fetch has spent waiting on interrupts, or bad addresses, or out of MSHRs (Cycle)
system.cpu.fetch.icacheWaitRetryStallCycles           62                       # Number of stall cycles due to full MSHR (Cycle)
system.cpu.fetch.cacheLines                   5489539                       # Number of cache lines fetched (Count)
system.cpu.fetch.icacheSquashes                 49488                       # Number of outstanding Icache misses that were squashed (Count)
system.cpu.fetch.nisnDist::samples           20436140                       # Number of instructions fetched each cycle (Total) (Count)
system.cpu.fetch.nisnDist::mean              2.065621                       # Number of instructions fetched each cycle (Total) (Count)
system.cpu.fetch.nisnDist::stdev             2.994368                       # Number of instructions fetched each cycle (Total) (Count)
system.cpu.fetch.nisnDist::underflows               0      0.00%      0.00% # Number of instructions fetched each cycle (Total) (Count)
system.cpu.fetch.nisnDist::0                 12169904     59.55%     59.55% # Number of instructions fetched each cycle (Total) (Count)
system.cpu.fetch.nisnDist::1                   780843      3.82%     63.37% # Number of instructions fetched each cycle (Total) (Count)
system.cpu.fetch.nisnDist::2                  1126165      5.51%     68.88% # Number of instructions fetched each cycle (Total) (Count)
system.cpu.fetch.nisnDist::3                   865426      4.23%     73.12% # Number of instructions fetched each cycle (Total) (Count)
system.cpu.fetch.nisnDist::4                   891449      4.36%     77.48% # Number of instructions fetched each cycle (Total) (Count)
system.cpu.fetch.nisnDist::5                   706296      3.46%     80.94% # Number of instructions fetched each cycle (Total) (Count)
system.cpu.fetch.nisnDist::6                   658702      3.22%     84.16% # Number of instructions fetched each cycle (Total) (Count)
system.cpu.fetch.nisnDist::7                   364459      1.78%     85.94% # Number of instructions fetched each cycle (Total) (Count)
system.cpu.fetch.nisnDist::8                  2872896     14.06%    100.00% # Number of instructions fetched each cycle (Total) (Count)
system.cpu.fetch.nisnDist::overflows                0      0.00%    100.00% # Number of instructions fetched each cycle (Total) (Count)
system.cpu.fetch.nisnDist::min_value                0                       # Number of instructions fetched each cycle (Total) (Count)
system.cpu.fetch.nisnDist::max_value                8                       # Number of instructions fetched each cycle (Total) (Count)
system.cpu.fetch.nisnDist::total             20436140                       # Number of instructions fetched each cycle (Total) (Count)
system.cpu.fetch.branchRate                  0.315331                       # Number of branch fetches per cycle (Ratio)
system.cpu.fetch.rate                        1.778670                       # Number of inst fetches per cycle ((Count/Cycle))
system.cpu.icache.demandHits::cpu.inst        5461608                       # number of demand (read+write) hits (Count)
system.cpu.icache.demandHits::total           5461608                       # number of demand (read+write) hits (Count)
system.cpu.icache.overallHits::cpu.inst       5461608                       # number of overall hits (Count)
system.cpu.icache.overallHits::total          5461608                       # number of overall hits (Count)
system.cpu.icache.demandMisses::cpu.inst        27931                       # number of demand (read+write) misses (Count)
system.cpu.icache.demandMisses::total           27931                       # number of demand (read+write) misses (Count)
system.cpu.icache.overallMisses::cpu.inst        27931                       # number of overall misses (Count)
system.cpu.icache.overallMisses::total          27931                       # number of overall misses (Count)
system.cpu.icache.demandMissLatency::cpu.inst    723867498                       # number of demand (read+write) miss ticks (Tick)
system.cpu.icache.demandMissLatency::total    723867498                       # number of demand (read+write) miss ticks (Tick)
system.cpu.icache.overallMissLatency::cpu.inst    723867498                       # number of overall miss ticks (Tick)
system.cpu.icache.overallMissLatency::total    723867498                       # number of overall miss ticks (Tick)
system.cpu.icache.demandAccesses::cpu.inst      5489539                       # number of demand (read+write) accesses (Count)
system.cpu.icache.demandAccesses::total       5489539                       # number of demand (read+write) accesses (Count)
system.cpu.icache.overallAccesses::cpu.inst      5489539                       # number of overall (read+write) accesses (Count)
system.cpu.icache.overallAccesses::total      5489539                       # number of overall (read+write) accesses (Count)
system.cpu.icache.demandMissRate::cpu.inst     0.005088                       # miss rate for demand accesses (Ratio)
system.cpu.icache.demandMissRate::total      0.005088                       # miss rate for demand accesses (Ratio)
system.cpu.icache.overallMissRate::cpu.inst     0.005088                       # miss rate for overall accesses (Ratio)
system.cpu.icache.overallMissRate::total     0.005088                       # miss rate for overall accesses (Ratio)
system.cpu.icache.demandAvgMissLatency::cpu.inst 25916.275751                       # average overall miss latency ((Cycle/Count))
system.cpu.icache.demandAvgMissLatency::total 25916.275751                       # average overall miss latency ((Cycle/Count))
system.cpu.icache.overallAvgMissLatency::cpu.inst 25916.275751                       # average overall miss latency ((Cycle/Count))
system.cpu.icache.overallAvgMissLatency::total 25916.275751                       # average overall miss latency ((Cycle/Count))
system.cpu.icache.blockedCycles::no_mshrs         1191                       # number of cycles access was blocked (Cycle)
system.cpu.icache.blockedCycles::no_targets            0                       # number of cycles access was blocked (Cycle)
system.cpu.icache.blockedCauses::no_mshrs           17                       # number of times access was blocked (Count)
system.cpu.icache.blockedCauses::no_targets            0                       # number of times access was blocked (Count)
system.cpu.icache.avgBlocked::no_mshrs      70.058824                       # average number of cycles each access was blocked ((Cycle/Count))
system.cpu.icache.avgBlocked::no_targets          nan                       # average number of cycles each access was blocked ((Cycle/Count))
system.cpu.icache.writebacks::writebacks        25448                       # number of writebacks (Count)
system.cpu.icache.writebacks::total             25448                       # number of writebacks (Count)
system.cpu.icache.demandMshrHits::cpu.inst         1982                       # number of demand (read+write) MSHR hits (Count)
system.cpu.icache.demandMshrHits::total          1982                       # number of demand (read+write) MSHR hits (Count)
system.cpu.icache.overallMshrHits::cpu.inst         1982                       # number of overall MSHR hits (Count)
system.cpu.icache.overallMshrHits::total         1982                       # number of overall MSHR hits (Count)
system.cpu.icache.demandMshrMisses::cpu.inst        25949                       # number of demand (read+write) MSHR misses (Count)
system.cpu.icache.demandMshrMisses::total        25949                       # number of demand (read+write) MSHR misses (Count)
system.cpu.icache.overallMshrMisses::cpu.inst        25949                       # number of overall MSHR misses (Count)
system.cpu.icache.overallMshrMisses::total        25949                       # number of overall MSHR misses (Count)
system.cpu.icache.demandMshrMissLatency::cpu.inst    655093999                       # number of demand (read+write) MSHR miss ticks (Tick)
system.cpu.icache.demandMshrMissLatency::total    655093999                       # number of demand (read+write) MSHR miss ticks (Tick)
system.cpu.icache.overallMshrMissLatency::cpu.inst    655093999                       # number of overall MSHR miss ticks (Tick)
system.cpu.icache.overallMshrMissLatency::total    655093999                       # number of overall MSHR miss ticks (Tick)
system.cpu.icache.demandMshrMissRate::cpu.inst     0.004727                       # mshr miss ratio for demand accesses (Ratio)
system.cpu.icache.demandMshrMissRate::total     0.004727                       # mshr miss ratio for demand accesses (Ratio)
system.cpu.icache.overallMshrMissRate::cpu.inst     0.004727                       # mshr miss ratio for overall accesses (Ratio)
system.cpu.icache.overallMshrMissRate::total     0.004727                       # mshr miss ratio for overall accesses (Ratio)
system.cpu.icache.demandAvgMshrMissLatency::cpu.inst 25245.442946                       # average overall mshr miss latency ((Cycle/Count))
system.cpu.icache.demandAvgMshrMissLatency::total 25245.442946                       # average overall mshr miss latency ((Cycle/Count))
system.cpu.icache.overallAvgMshrMissLatency::cpu.inst 25245.442946                       # average overall mshr miss latency ((Cycle/Count))
system.cpu.icache.overallAvgMshrMissLatency::total 25245.442946                       # average overall mshr miss latency ((Cycle/Count))
system.cpu.icache.replacements                  25448                       # number of replacements (Count)
system.cpu.icache.ReadReq.hits::cpu.inst      5461608                       # number of ReadReq hits (Count)
system.cpu.icache.ReadReq.hits::total         5461608                       # number of ReadReq hits (Count)
system.cpu.icache.ReadReq.misses::cpu.inst        27931                       # number of ReadReq misses (Count)
system.cpu.icache.ReadReq.misses::total         27931                       # number of ReadReq misses (Count)
system.cpu.icache.ReadReq.missLatency::cpu.inst    723867498                       # number of ReadReq miss ticks (Tick)
system.cpu.icache.ReadReq.missLatency::total    723867498                       # number of ReadReq miss ticks (Tick)
system.cpu.icache.ReadReq.accesses::cpu.inst      5489539                       # number of ReadReq accesses(hits+misses) (Count)
system.cpu.icache.ReadReq.accesses::total      5489539                       # number of ReadReq accesses(hits+misses) (Count)
system.cpu.icache.ReadReq.missRate::cpu.inst     0.005088                       # miss rate for ReadReq accesses (Ratio)
system.cpu.icache.ReadReq.missRate::total     0.005088                       # miss rate for ReadReq accesses (Ratio)
system.cpu.icache.ReadReq.avgMissLatency::cpu.inst 25916.275751                       # average ReadReq miss latency ((Tick/Count))
system.cpu.icache.ReadReq.avgMissLatency::total 25916.275751                       # average ReadReq miss latency ((Tick/Count))
system.cpu.icache.ReadReq.mshrHits::cpu.inst         1982                       # number of ReadReq MSHR hits (Count)
system.cpu.icache.ReadReq.mshrHits::total         1982                       # number of ReadReq MSHR hits (Count)
system.cpu.icache.ReadReq.mshrMisses::cpu.inst        25949                       # number of ReadReq MSHR misses (Count)
system.cpu.icache.ReadReq.mshrMisses::total        25949                       # number of ReadReq MSHR misses (Count)
system.cpu.icache.ReadReq.mshrMissLatency::cpu.inst    655093999                       # number of ReadReq MSHR miss ticks (Tick)
system.cpu.icache.ReadReq.mshrMissLatency::total    655093999                       # number of ReadReq MSHR miss ticks (Tick)
system.cpu.icache.ReadReq.mshrMissRate::cpu.inst     0.004727                       # mshr miss rate for ReadReq accesses (Ratio)
system.cpu.icache.ReadReq.mshrMissRate::total     0.004727                       # mshr miss rate for ReadReq accesses (Ratio)
system.cpu.icache.ReadReq.avgMshrMissLatency::cpu.inst 25245.442946                       # average ReadReq mshr miss latency ((Tick/Count))
system.cpu.icache.ReadReq.avgMshrMissLatency::total 25245.442946                       # average ReadReq mshr miss latency ((Tick/Count))
system.cpu.icache.power_state.pwrStateResidencyTicks::UNDEFINED  10490945500                       # Cumulative time (in ticks) in various power states (Tick)
system.cpu.icache.tags.tagsInUse           496.856907                       # Average ticks per tags in use ((Tick/Count))
system.cpu.icache.tags.totalRefs              5487556                       # Total number of references to valid blocks. (Count)
system.cpu.icache.tags.sampledRefs              25948                       # Sample count of references to valid blocks. (Count)
system.cpu.icache.tags.avgRefs             211.482812                       # Average number of references to valid blocks. ((Count/Count))
system.cpu.icache.tags.warmupTick               77000                       # The tick when the warmup percentage was hit. (Tick)
system.cpu.icache.tags.occupancies::cpu.inst   496.856907                       # Average occupied blocks per tick, per requestor ((Count/Tick))
system.cpu.icache.tags.avgOccs::cpu.inst     0.970424                       # Average percentage of cache occupancy ((Ratio/Tick))
system.cpu.icache.tags.avgOccs::total        0.970424                       # Average percentage of cache occupancy ((Ratio/Tick))
system.cpu.icache.tags.occupanciesTaskId::1024          500                       # Occupied blocks per task id (Count)
system.cpu.icache.tags.ageTaskId_1024::0           96                       # Occupied blocks per task id, per block age (Count)
system.cpu.icache.tags.ageTaskId_1024::3          194                       # Occupied blocks per task id, per block age (Count)
system.cpu.icache.tags.ageTaskId_1024::4          210                       # Occupied blocks per task id, per block age (Count)
system.cpu.icache.tags.ratioOccsTaskId::1024     0.976562                       # Ratio of occupied blocks and all blocks, per task id (Ratio)
system.cpu.icache.tags.tagAccesses           11005026                       # Number of tag accesses (Count)
system.cpu.icache.tags.dataAccesses          11005026                       # Number of data accesses (Count)
system.cpu.icache.tags.power_state.pwrStateResidencyTicks::UNDEFINED  10490945500                       # Cumulative time (in ticks) in various power states (Tick)
system.cpu.iew.idleCycles                           0                       # Number of cycles IEW is idle (Cycle)
system.cpu.iew.squashCycles                     81646                       # Number of cycles IEW is squashing (Cycle)
system.cpu.iew.blockCycles                    1662061                       # Number of cycles IEW is blocking (Cycle)
system.cpu.iew.unblockCycles                   730202                       # Number of cycles IEW is unblocking (Cycle)
system.cpu.iew.dispatchedInsts               40738987                       # Number of instructions dispatched to IQ (Count)
[...]
system.mem_ctrls.dram.bwRead::cpu.inst      158295742                       # Total read bandwidth from this memory ((Byte/Second))
system.mem_ctrls.dram.bwRead::cpu.data      329042602                       # Total read bandwidth from this memory ((Byte/Second))
system.mem_ctrls.dram.bwRead::total         487338343                       # Total read bandwidth from this memory ((Byte/Second))
system.mem_ctrls.dram.bwInstRead::cpu.inst    158295742                       # Instruction read bandwidth from this memory ((Byte/Second))
system.mem_ctrls.dram.bwInstRead::total     158295742                       # Instruction read bandwidth from this memory ((Byte/Second))
system.mem_ctrls.dram.bwWrite::writebacks     73822135                       # Write bandwidth from this memory ((Byte/Second))
system.mem_ctrls.dram.bwWrite::total         73822135                       # Write bandwidth from this memory ((Byte/Second))
system.mem_ctrls.dram.bwTotal::writebacks     73822135                       # Total bandwidth to/from this memory ((Byte/Second))
system.mem_ctrls.dram.bwTotal::cpu.inst     158295742                       # Total bandwidth to/from this memory ((Byte/Second))
system.mem_ctrls.dram.bwTotal::cpu.data     329042602                       # Total bandwidth to/from this memory ((Byte/Second))
system.mem_ctrls.dram.bwTotal::total        561160479                       # Total bandwidth to/from this memory ((Byte/Second))
system.mem_ctrls.dram.readBursts                55465                       # Number of DRAM read bursts (Count)
system.mem_ctrls.dram.writeBursts               13634                       # Number of DRAM write bursts (Count)
system.mem_ctrls.dram.perBankRdBursts::0         1354                       # Per bank write bursts (Count)
system.mem_ctrls.dram.perBankRdBursts::1         1408                       # Per bank write bursts (Count)
system.mem_ctrls.dram.perBankRdBursts::2         1450                       # Per bank write bursts (Count)
system.mem_ctrls.dram.perBankRdBursts::3         1385                       # Per bank write bursts (Count)
system.mem_ctrls.dram.perBankRdBursts::4         1388                       # Per bank write bursts (Count)
system.mem_ctrls.dram.perBankRdBursts::5         1611                       # Per bank write bursts (Count)
system.mem_ctrls.dram.perBankRdBursts::6         1767                       # Per bank write bursts (Count)
system.mem_ctrls.dram.perBankRdBursts::7         1611                       # Per bank write bursts (Count)
system.mem_ctrls.dram.perBankRdBursts::8         1360                       # Per bank write bursts (Count)
system.mem_ctrls.dram.perBankRdBursts::9         1335                       # Per bank write bursts (Count)
system.mem_ctrls.dram.perBankRdBursts::10        17823                       # Per bank write bursts (Count)
system.mem_ctrls.dram.perBankRdBursts::11         1315                       # Per bank write bursts (Count)
system.mem_ctrls.dram.perBankRdBursts::12        17740                       # Per bank write bursts (Count)
system.mem_ctrls.dram.perBankRdBursts::13         1344                       # Per bank write bursts (Count)
system.mem_ctrls.dram.perBankRdBursts::14         1304                       # Per bank write bursts (Count)
system.mem_ctrls.dram.perBankRdBursts::15         1270                       # Per bank write bursts (Count)
system.mem_ctrls.dram.perBankWrBursts::0          765                       # Per bank write bursts (Count)
system.mem_ctrls.dram.perBankWrBursts::1          802                       # Per bank write bursts (Count)
system.mem_ctrls.dram.perBankWrBursts::2          852                       # Per bank write bursts (Count)
system.mem_ctrls.dram.perBankWrBursts::3          874                       # Per bank write bursts (Count)
system.mem_ctrls.dram.perBankWrBursts::4          852                       # Per bank write bursts (Count)
system.mem_ctrls.dram.perBankWrBursts::5          902                       # Per bank write bursts (Count)
system.mem_ctrls.dram.perBankWrBursts::6         1010                       # Per bank write bursts (Count)
system.mem_ctrls.dram.perBankWrBursts::7          983                       # Per bank write bursts (Count)
system.mem_ctrls.dram.perBankWrBursts::8          807                       # Per bank write bursts (Count)
system.mem_ctrls.dram.perBankWrBursts::9          849                       # Per bank write bursts (Count)
system.mem_ctrls.dram.perBankWrBursts::10          740                       # Per bank write bursts (Count)
system.mem_ctrls.dram.perBankWrBursts::11          873                       # Per bank write bursts (Count)
system.mem_ctrls.dram.perBankWrBursts::12          783                       # Per bank write bursts (Count)
system.mem_ctrls.dram.perBankWrBursts::13         1041                       # Per bank write bursts (Count)
system.mem_ctrls.dram.perBankWrBursts::14          754                       # Per bank write bursts (Count)
system.mem_ctrls.dram.perBankWrBursts::15          747                       # Per bank write bursts (Count)
system.mem_ctrls.dram.totQLat              1082911500                       # Total ticks spent queuing (Tick)
system.mem_ctrls.dram.totBusLat             277325000                       # Total ticks spent in databus transfers (Tick)
system.mem_ctrls.dram.totMemAccLat         2122880250                       # Total ticks spent from burst creation until serviced by the DRAM (Tick)
system.mem_ctrls.dram.avgQLat                19524.23                       # Average queueing delay per DRAM burst ((Tick/Count))
system.mem_ctrls.dram.avgBusLat               5000.00                       # Average bus latency per DRAM burst ((Tick/Count))
system.mem_ctrls.dram.avgMemAccLat           38274.23                       # Average memory access latency per DRAM burst ((Tick/Count))
system.mem_ctrls.dram.readRowHits               43583                       # Number of row buffer hits during reads (Count)
system.mem_ctrls.dram.writeRowHits              11816                       # Number of row buffer hits during writes (Count)
system.mem_ctrls.dram.readRowHitRate            78.58                       # Row buffer hit rate for reads (Ratio)
system.mem_ctrls.dram.writeRowHitRate           86.67                       # Row buffer hit rate for writes (Ratio)
system.mem_ctrls.dram.bytesPerActivate::samples        13689                       # Bytes accessed per row activation (Byte)
system.mem_ctrls.dram.bytesPerActivate::mean   322.936080                       # Bytes accessed per row activation (Byte)
system.mem_ctrls.dram.bytesPerActivate::gmean   193.864550                       # Bytes accessed per row activation (Byte)
system.mem_ctrls.dram.bytesPerActivate::stdev   337.996878                       # Bytes accessed per row activation (Byte)
system.mem_ctrls.dram.bytesPerActivate::0-127         4265     31.16%     31.16% # Bytes accessed per row activation (Byte)
system.mem_ctrls.dram.bytesPerActivate::128-255         4094     29.91%     61.06% # Bytes accessed per row activation (Byte)
system.mem_ctrls.dram.bytesPerActivate::256-383         2024     14.79%     75.85% # Bytes accessed per row activation (Byte)
system.mem_ctrls.dram.bytesPerActivate::384-511          307      2.24%     78.09% # Bytes accessed per row activation (Byte)
system.mem_ctrls.dram.bytesPerActivate::512-639          224      1.64%     79.73% # Bytes accessed per row activation (Byte)
system.mem_ctrls.dram.bytesPerActivate::640-767           90      0.66%     80.39% # Bytes accessed per row activation (Byte)
system.mem_ctrls.dram.bytesPerActivate::768-895          289      2.11%     82.50% # Bytes accessed per row activation (Byte)
system.mem_ctrls.dram.bytesPerActivate::896-1023          980      7.16%     89.66% # Bytes accessed per row activation (Byte)
system.mem_ctrls.dram.bytesPerActivate::1024-1151         1416     10.34%    100.00% # Bytes accessed per row activation (Byte)
system.mem_ctrls.dram.bytesPerActivate::total        13689                       # Bytes accessed per row activation (Byte)
system.mem_ctrls.dram.bytesRead               3549760                       # Total bytes read (Byte)
system.mem_ctrls.dram.bytesWritten             872576                       # Total bytes written (Byte)
system.mem_ctrls.dram.avgRdBW              338.364164                       # Average DRAM read bandwidth in MiBytes/s ((Byte/Second))
system.mem_ctrls.dram.avgWrBW               83.174200                       # Average DRAM write bandwidth in MiBytes/s ((Byte/Second))
system.mem_ctrls.dram.peakBW                 12800.00                       # Theoretical peak bandwidth in MiByte/s ((Byte/Second))
system.mem_ctrls.dram.busUtil                    3.29                       # Data bus utilization in percentage (Ratio)
system.mem_ctrls.dram.busUtilRead                2.64                       # Data bus utilization in percentage for reads (Ratio)
system.mem_ctrls.dram.busUtilWrite               0.65                       # Data bus utilization in percentage for writes (Ratio)
system.mem_ctrls.dram.pageHitRate               80.17                       # Row buffer hit rate, read and write combined (Ratio)
system.mem_ctrls.dram.power_state.pwrStateResidencyTicks::UNDEFINED  10490945500                       # Cumulative time (in ticks) in various power states (Tick)
system.mem_ctrls.dram.rank0.actEnergy        40183920                       # Energy for activate commands per rank (pJ) (Joule)
system.mem_ctrls.dram.rank0.preEnergy        21339285                       # Energy for precharge commands per rank (pJ) (Joule)
system.mem_ctrls.dram.rank0.readEnergy       85487220                       # Energy for read commands per rank (pJ) (Joule)
system.mem_ctrls.dram.rank0.writeEnergy      36748800                       # Energy for write commands per rank (pJ) (Joule)
system.mem_ctrls.dram.rank0.refreshEnergy 827920080.000000                       # Energy for refresh commands per rank (pJ) (Joule)
system.mem_ctrls.dram.rank0.actBackEnergy   2276146230                       # Energy for active background per rank (pJ) (Joule)
system.mem_ctrls.dram.rank0.preBackEnergy   2111768640                       # Energy for precharge background per rank (pJ) (Joule)
system.mem_ctrls.dram.rank0.actPowerDownEnergy            0                       # Energy for active power-down per rank (pJ) (Joule)
system.mem_ctrls.dram.rank0.prePowerDownEnergy            0                       # Energy for precharge power-down per rank (pJ) (Joule)
system.mem_ctrls.dram.rank0.selfRefreshEnergy            0                       # Energy for self refresh per rank (pJ) (Joule)
system.mem_ctrls.dram.rank0.totalEnergy    5399594175                       # Total energy per rank (pJ) (Joule)
system.mem_ctrls.dram.rank0.averagePower   514.690899                       # Core power per rank (mW) (Watt)
system.mem_ctrls.dram.rank0.totalIdleTime            0                       # Total Idle time Per DRAM Rank (Tick)
system.mem_ctrls.dram.rank0.pwrStateTime::IDLE   5454355750                       # Time in different power states (Tick)
system.mem_ctrls.dram.rank0.pwrStateTime::REF    350220000                       # Time in different power states (Tick)
system.mem_ctrls.dram.rank0.pwrStateTime::SREF            0                       # Time in different power states (Tick)
system.mem_ctrls.dram.rank0.pwrStateTime::PRE_PDN            0                       # Time in different power states (Tick)
system.mem_ctrls.dram.rank0.pwrStateTime::ACT   4686369750                       # Time in different power states (Tick)
system.mem_ctrls.dram.rank0.pwrStateTime::ACT_PDN            0                       # Time in different power states (Tick)
system.mem_ctrls.dram.rank1.actEnergy        57626940                       # Energy for activate commands per rank (pJ) (Joule)
system.mem_ctrls.dram.rank1.preEnergy        30610470                       # Energy for precharge commands per rank (pJ) (Joule)
system.mem_ctrls.dram.rank1.readEnergy      310525740                       # Energy for read commands per rank (pJ) (Joule)
system.mem_ctrls.dram.rank1.writeEnergy      34420680                       # Energy for write commands per rank (pJ) (Joule)
system.mem_ctrls.dram.rank1.refreshEnergy 827920080.000000                       # Energy for refresh commands per rank (pJ) (Joule)
system.mem_ctrls.dram.rank1.actBackEnergy   4344110220                       # Energy for active background per rank (pJ) (Joule)
system.mem_ctrls.dram.rank1.preBackEnergy    370325280                       # Energy for precharge background per rank (pJ) (Joule)
system.mem_ctrls.dram.rank1.actPowerDownEnergy            0                       # Energy for active power-down per rank (pJ) (Joule)
system.mem_ctrls.dram.rank1.prePowerDownEnergy            0                       # Energy for precharge power-down per rank (pJ) (Joule)
system.mem_ctrls.dram.rank1.selfRefreshEnergy            0                       # Energy for self refresh per rank (pJ) (Joule)
system.mem_ctrls.dram.rank1.totalEnergy    5975539410                       # Total energy per rank (pJ) (Joule)
system.mem_ctrls.dram.rank1.averagePower   569.590168                       # Core power per rank (mW) (Watt)
system.mem_ctrls.dram.rank1.totalIdleTime            0                       # Total Idle time Per DRAM Rank (Tick)
system.mem_ctrls.dram.rank1.pwrStateTime::IDLE    917134250                       # Time in different power states (Tick)
system.mem_ctrls.dram.rank1.pwrStateTime::REF    350220000                       # Time in different power states (Tick)
system.mem_ctrls.dram.rank1.pwrStateTime::SREF            0                       # Time in different power states (Tick)
system.mem_ctrls.dram.rank1.pwrStateTime::PRE_PDN            0                       # Time in different power states (Tick)
system.mem_ctrls.dram.rank1.pwrStateTime::ACT   9223591250                       # Time in different power states (Tick)
system.mem_ctrls.dram.rank1.pwrStateTime::ACT_PDN            0                       # Time in different power states (Tick)
system.mem_ctrls.power_state.pwrStateResidencyTicks::UNDEFINED  10490945500                       # Cumulative time (in ticks) in various power states (Tick)
system.membus.transDist::ReadResp               70996                       # Transaction distribution (Count)
system.membus.transDist::WritebackDirty         12101                       # Transaction distribution (Count)
system.membus.transDist::WritebackClean         25448                       # Transaction distribution (Count)
system.membus.transDist::CleanEvict             43592                       # Transaction distribution (Count)
system.membus.transDist::ReadExReq               8889                       # Transaction distribution (Count)
system.membus.transDist::ReadExResp              8889                       # Transaction distribution (Count)
system.membus.transDist::ReadCleanReq           25949                       # Transaction distribution (Count)
system.membus.transDist::ReadSharedReq          45048                       # Transaction distribution (Count)
system.membus.transDist::InvalidateReq           2268                       # Transaction distribution (Count)
system.membus.pktCount_system.cpu.icache.mem_side_port::system.mem_ctrls.port        77345                       # Packet count per connected requestor and responder (Count)
system.membus.pktCount_system.cpu.dcache.mem_side_port::system.mem_ctrls.port       165835                       # Packet count per connected requestor and responder (Count)
system.membus.pktCount::total                  243180                       # Packet count per connected requestor and responder (Count)
system.membus.pktSize_system.cpu.icache.mem_side_port::system.mem_ctrls.port      3289344                       # Cumulative packet size per connected requestor and responder (Byte)
system.membus.pktSize_system.cpu.dcache.mem_side_port::system.mem_ctrls.port      4226432                       # Cumulative packet size per connected requestor and responder (Byte)
system.membus.pktSize::total                  7515776                       # Cumulative packet size per connected requestor and responder (Byte)
system.membus.snoops                                0                       # Total snoops (Count)
system.membus.snoopTraffic                          0                       # Total snoop traffic (Byte)
system.membus.snoopFanout::samples              82154                       # Request fanout histogram (Count)
system.membus.snoopFanout::mean              0.000037                       # Request fanout histogram (Count)
system.membus.snoopFanout::stdev             0.006043                       # Request fanout histogram (Count)
system.membus.snoopFanout::underflows               0      0.00%      0.00% # Request fanout histogram (Count)
system.membus.snoopFanout::0                    82151    100.00%    100.00% # Request fanout histogram (Count)
system.membus.snoopFanout::1                        3      0.00%    100.00% # Request fanout histogram (Count)
system.membus.snoopFanout::2                        0      0.00%    100.00% # Request fanout histogram (Count)
system.membus.snoopFanout::overflows                0      0.00%    100.00% # Request fanout histogram (Count)
system.membus.snoopFanout::min_value                0                       # Request fanout histogram (Count)
system.membus.snoopFanout::max_value                1                       # Request fanout histogram (Count)
system.membus.snoopFanout::total                82154                       # Request fanout histogram (Count)
system.membus.power_state.pwrStateResidencyTicks::UNDEFINED  10490945500                       # Cumulative time (in ticks) in various power states (Tick)
system.membus.reqLayer0.occupancy           332951500                       # Layer occupancy (ticks) (Tick)
system.membus.reqLayer0.utilization               0.0                       # Layer utilization (Ratio)
system.membus.respLayer1.occupancy          130303250                       # Layer occupancy (ticks) (Tick)
system.membus.respLayer1.utilization              0.0                       # Layer utilization (Ratio)
system.membus.respLayer2.occupancy          283641750                       # Layer occupancy (ticks) (Tick)
system.membus.respLayer2.utilization              0.0                       # Layer utilization (Ratio)
system.membus.snoop_filter.totRequests         163298                       # Total number of requests made to the snoop filter. (Count)
system.membus.snoop_filter.hitSingleRequests        81145                       # Number of requests hitting in the snoop filter with a single holder of the requested data. (Count)
system.membus.snoop_filter.hitMultiRequests            2                       # Number of requests hitting in the snoop filter with multiple (>1) holders of the requested data. (Count)
system.membus.snoop_filter.totSnoops                0                       # Total number of snoops made to the snoop filter. (Count)
system.membus.snoop_filter.hitSingleSnoops            0                       # Number of snoops hitting in the snoop filter with a single holder of the requested data. (Count)
system.membus.snoop_filter.hitMultiSnoops            0                       # Number of snoops hitting in the snoop filter with multiple (>1) holders of the requested data. (Count)
system.voltage_domain.voltage                       1                       # Voltage in Volts (Volt)
system.workload.inst.arm                            0                       # number of arm instructions executed (Count)
system.workload.inst.quiesce                        0                       # number of quiesce instructions executed (Count)

---------- End Simulation Statistics   ----------
