
---------- Begin Simulation Statistics ----------
simSeconds                                   0.002443                       # Number of seconds simulated (Second)
simTicks                                   2443056000                       # Number of ticks simulated (Tick)
finalTick                                  2443056000                       # Number of ticks from beginning of simulation (restored from checkpoints and never reset) (Tick)
simFreq                                  1000000000000                       # The number of ticks per simulated second ((Tick/Second))
hostSeconds                                     10.31                       # Real time elapsed on the host (Second)
hostTickRate                                236932933                       # The number of ticks simulated per host second (ticks/s) ((Tick/Second))
hostMemory                                     670924                       # Number of bytes of host memory used (Byte)
simInsts                                      4846742                       # Number of instructions simulated (Count)
simOps                                        5375320                       # Number of ops (including micro ops) simulated (Count)
hostInstRate                                   470046                       # Simulator instruction rate (inst/s) ((Count/Second))
hostOpRate                                     521308                       # Simulator op (including micro ops) rate (op/s) ((Count/Second))
system.clk_domain.clock                          1000                       # Clock period in ticks (Tick)
system.cpu.numCycles                          4886113                       # Number of cpu cycles simulated (Cycle)
system.cpu.numWorkItemsStarted                      0                       # Number of work items this cpu started (Count)
system.cpu.numWorkItemsCompleted                    0                       # Number of work items this cpu completed (Count)
system.cpu.instsAdded                         6225273                       # Number of instructions added to the IQ (excludes non-spec) (Count)
system.cpu.nonSpecInstsAdded                     2187                       # Number of non-speculative instructions added to the IQ (Count)
system.cpu.instsIssued                        5949912                       # Number of instructions issued (Count)
system.cpu.squashedInstsIssued                   1675                       # Number of squashed instructions issued (Count)
system.cpu.squashedInstsExamined               852139                       # Number of squashed instructions iterated over during squash; mainly for profiling (Count)
system.cpu.squashedOperandsExamined            613896                       # Number of squashed operands that are examined and possibly removed from graph (Count)
system.cpu.squashedNonSpecRemoved                  80                       # Number of squashed non-spec instructions that were removed (Count)
system.cpu.numIssuedDist::samples             4845841                       # Number of insts issued each cycle (Count)
system.cpu.numIssuedDist::mean               1.227839                       # Number of insts issued each cycle (Count)
system.cpu.numIssuedDist::stdev              1.920098                       # Number of insts issued each cycle (Count)
system.cpu.numIssuedDist::underflows                0      0.00%      0.00% # Number of insts issued each cycle (Count)
system.cpu.numIssuedDist::0                   2922192     60.30%     60.30% # Number of insts issued each cycle (Count)
system.cpu.numIssuedDist::1                    485353     10.02%     70.32% # Number of insts issued each cycle (Count)
system.cpu.numIssuedDist::2                    404124      8.34%     78.66% # Number of insts issued each cycle (Count)
system.cpu.numIssuedDist::3                    305127      6.30%     84.96% # Number of insts issued each cycle (Count)
system.cpu.numIssuedDist::4                    317400      6.55%     91.51% # Number of insts issued each cycle (Count)
system.cpu.numIssuedDist::5                    153977      3.18%     94.68% # Number of insts issued each cycle (Count)
system.cpu.numIssuedDist::6                    151485      3.13%     97.81% # Number of insts issued each cycle (Count)
system.cpu.numIssuedDist::7                     56929      1.17%     98.98% # Number of insts issued each cycle (Count)
system.cpu.numIssuedDist::8                     49254      1.02%    100.00% # Number of insts issued each cycle (Count)
system.cpu.numIssuedDist::overflows                 0      0.00%    100.00% # Number of insts issued each cycle (Count)
system.cpu.numIssuedDist::min_value                 0                       # Number of insts issued each cycle (Count)
system.cpu.numIssuedDist::max_value                 8                       # Number of insts issued each cycle (Count)
system.cpu.numIssuedDist::total               4845841                       # Number of insts issued each cycle (Count)
system.cpu.statFuBusy::No_OpClass                   0      0.00%      0.00% # attempts to use FU when none available (Count)
system.cpu.statFuBusy::IntAlu                   28489     17.47%     17.47% # attempts to use FU when none available (Count)
system.cpu.statFuBusy::IntMult                      0      0.00%     17.47% # attempts to use FU when none available (Count)
system.cpu.statFuBusy::IntDiv                       0      0.00%     17.47% # attempts to use FU when none available (Count)
system.cpu.statFuBusy::FloatAdd                     0      0.00%     17.47% # attempts to use FU when none available (Count)
system.cpu.statFuBusy::FloatCmp                     0      0.00%     17.47% # attempts to use FU when none available (Count)
system.cpu.statFuBusy::FloatCvt                     0      0.00%     17.47% # attempts to use FU when none available (Count)
system.cpu.statFuBusy::FloatMult                    0      0.00%     17.47% # attempts to use FU when none available (Count)
system.cpu.statFuBusy::FloatMultAcc                 0      0.00%     17.47% # attempts to use FU when none available (Count)
system.cpu.statFuBusy::FloatDiv                     0      0.00%     17.47% # attempts to use FU when none available (Count)
system.cpu.statFuBusy::FloatMisc                    0      0.00%     17.47% # attempts to use FU when none available (Count)
system.cpu.statFuBusy::FloatSqrt                    0      0.00%     17.47% # attempts to use FU when none available (Count)
system.cpu.statFuBusy::SimdAdd                      0      0.00%     17.47% # attempts to use FU when none available (Count)
system.cpu.statFuBusy::SimdAddAcc                   0      0.00%     17.47% # attempts to use FU when none available (Count)
system.cpu.statFuBusy::SimdAlu                    565      0.35%     17.82% # attempts to use FU when none available (Count)
system.cpu.statFuBusy::SimdCmp                    795      0.49%     18.31% # attempts to use FU when none available (Count)
system.cpu.statFuBusy::SimdCvt                      0      0.00%     18.31% # attempts to use FU when none available (Count)
system.cpu.statFuBusy::SimdMisc                     0      0.00%     18.31% # attempts to use FU when none available (Count)
system.cpu.statFuBusy::SimdMult                     0      0.00%     18.31% # attempts to use FU when none available (Count)
system.cpu.statFuBusy::SimdMultAcc                  0      0.00%     18.31% # attempts to use FU when none available (Count)
system.cpu.statFuBusy::SimdShift                    0      0.00%     18.31% # attempts to use FU when none available (Count)
system.cpu.statFuBusy::SimdShiftAcc                 0      0.00%     18.31% # attempts to use FU when none available (Count)
system.cpu.statFuBusy::SimdDiv                      0      0.00%     18.31% # attempts to use FU when none available (Count)
system.cpu.statFuBusy::SimdSqrt                     0      0.00%     18.31% # attempts to use FU when none available (Count)
system.cpu.statFuBusy::SimdFloatAdd                 0      0.00%     18.31% # attempts to use FU when none available (Count)
system.cpu.statFuBusy::SimdFloatAlu                 0      0.00%     18.31% # attempts to use FU when none available (Count)
system.cpu.statFuBusy::SimdFloatCmp                 0      0.00%     18.31% # attempts to use FU when none available (Count)
system.cpu.statFuBusy::SimdFloatCvt                 0      0.00%     18.31% # attempts to use FU when none available (Count)
system.cpu.statFuBusy::SimdFloatDiv                 0      0.00%     18.31% # attempts to use FU when none available (Count)
system.cpu.statFuBusy::SimdFloatMisc                0      0.00%     18.31% # attempts to use FU when none available (Count)
system.cpu.statFuBusy::SimdFloatMult                0      0.00%     18.31% # attempts to use FU when none available (Count)
system.cpu.statFuBusy::SimdFloatMultAcc             0      0.00%     18.31% # attempts to use FU when none available (Count)
system.cpu.statFuBusy::SimdFloatSqrt                0      0.00%     18.31% # attempts to use FU when none available (Count)
system.cpu.statFuBusy::SimdReduceAdd                0      0.00%     18.31% # attempts to use FU when none available (Count)
system.cpu.statFuBusy::SimdReduceAlu                0      0.00%     18.31% # attempts to use FU when none available (Count)
system.cpu.statFuBusy::SimdReduceCmp                0      0.00%     18.31% # attempts to use FU when none available (Count)
system.cpu.statFuBusy::SimdFloatReduceAdd            0      0.00%     18.31% # attempts to use FU when none available (Count)
system.cpu.statFuBusy::SimdFloatReduceCmp            0      0.00%     18.31% # attempts to use FU when none available (Count)
system.cpu.statFuBusy::SimdAes                      0      0.00%     18.31% # attempts to use FU when none available (Count)
system.cpu.statFuBusy::SimdAesMix                   0      0.00%     18.31% # attempts to use FU when none available (Count)
system.cpu.statFuBusy::SimdSha1Hash                 0      0.00%     18.31% # attempts to use FU when none available (Count)
system.cpu.statFuBusy::SimdSha1Hash2                0      0.00%     18.31% # attempts to use FU when none available (Count)
system.cpu.statFuBusy::SimdSha256Hash               0      0.00%     18.31% # attempts to use FU when none available (Count)
system.cpu.statFuBusy::SimdSha256Hash2              0      0.00%     18.31% # attempts to use FU when none available (Count)
system.cpu.statFuBusy::SimdShaSigma2                0      0.00%     18.31% # attempts to use FU when none available (Count)
system.cpu.statFuBusy::SimdShaSigma3                0      0.00%     18.31% # attempts to use FU when none available (Count)
system.cpu.statFuBusy::SimdPredAlu                  0      0.00%     18.31% # attempts to use FU when none available (Count)
system.cpu.statFuBusy::MemRead                  94806     58.15%     76.46% # attempts to use FU when none available (Count)
system.cpu.statFuBusy::MemWrite                 38381     23.54%    100.00% # attempts to use FU when none available (Count)
system.cpu.statFuBusy::FloatMemRead                 0      0.00%    100.00% # attempts to use FU when none available (Count)
system.cpu.statFuBusy::FloatMemWrite                0      0.00%    100.00% # attempts to use FU when none available (Count)
system.cpu.statFuBusy::IprAccess                    0      0.00%    100.00% # attempts to use FU when none available (Count)
system.cpu.statFuBusy::InstPrefetch                 0      0.00%    100.00% # attempts to use FU when none available (Count)
system.cpu.statIssuedInstType_0::No_OpClass         9501      0.16%      0.16% # Number of instructions issued per FU type, per thread (Count)
system.cpu.statIssuedInstType_0::IntAlu       3506660     58.94%     59.10% # Number of instructions issued per FU type, per thread (Count)
system.cpu.statIssuedInstType_0::IntMult        58698      0.99%     60.08% # Number of instructions issued per FU type, per thread (Count)
system.cpu.statIssuedInstType_0::IntDiv             3      0.00%     60.08% # Number of instructions issued per FU type, per thread (Count)
system.cpu.statIssuedInstType_0::FloatAdd            0      0.00%     60.08% # Number of instructions issued per FU type, per thread (Count)
system.cpu.statIssuedInstType_0::FloatCmp            0      0.00%     60.08% # Number of instructions issued per FU type, per thread (Count)
system.cpu.statIssuedInstType_0::FloatCvt            0      0.00%     60.08% # Number of instructions issued per FU type, per thread (Count)
system.cpu.statIssuedInstType_0::FloatMult            0      0.00%     60.08% # Number of instructions issued per FU type, per thread (Count)
system.cpu.statIssuedInstType_0::FloatMultAcc            0      0.00%     60.08% # Number of instructions issued per FU type, per thread (Count)
system.cpu.statIssuedInstType_0::FloatDiv            0      0.00%     60.08% # Number of instructions issued per FU type, per thread (Count)
system.cpu.statIssuedInstType_0::FloatMisc            0      0.00%     60.08% # Number of instructions issued per FU type, per thread (Count)
system.cpu.statIssuedInstType_0::FloatSqrt            0      0.00%     60.08% # Number of instructions issued per FU type, per thread (Count)
system.cpu.statIssuedInstType_0::SimdAdd        20393      0.34%     60.43% # Number of instructions issued per FU type, per thread (Count)
system.cpu.statIssuedInstType_0::SimdAddAcc            0      0.00%     60.43% # Number of instructions issued per FU type, per thread (Count)
system.cpu.statIssuedInstType_0::SimdAlu        39365      0.66%     61.09% # Number of instructions issued per FU type, per thread (Count)
system.cpu.statIssuedInstType_0::SimdCmp        37930      0.64%     61.72% # Number of instructions issued per FU type, per thread (Count)
system.cpu.statIssuedInstType_0::SimdCvt            0      0.00%     61.72% # Number of instructions issued per FU type, per thread (Count)
system.cpu.statIssuedInstType_0::SimdMisc        27324      0.46%     62.18% # Number of instructions issued per FU type, per thread (Count)
system.cpu.statIssuedInstType_0::SimdMult            0      0.00%     62.18% # Number of instructions issued per FU type, per thread (Count)
system.cpu.statIssuedInstType_0::SimdMultAcc            0      0.00%     62.18% # Number of instructions issued per FU type, per thread (Count)
system.cpu.statIssuedInstType_0::SimdShift            0      0.00%     62.18% # Number of instructions issued per FU type, per thread (Count)
system.cpu.statIssuedInstType_0::SimdShiftAcc            0      0.00%     62.18% # Number of instructions issued per FU type, per thread (Count)
system.cpu.statIssuedInstType_0::SimdDiv            0      0.00%     62.18% # Number of instructions issued per FU type, per thread (Count)
system.cpu.statIssuedInstType_0::SimdSqrt            0      0.00%     62.18% # Number of instructions issued per FU type, per thread (Count)
system.cpu.statIssuedInstType_0::SimdFloatAdd            0      0.00%     62.18% # Number of instructions issued per FU type, per thread (Count)
system.cpu.statIssuedInstType_0::SimdFloatAlu            0      0.00%     62.18% # Number of instructions issued per FU type, per thread (Count)
system.cpu.statIssuedInstType_0::SimdFloatCmp            0      0.00%     62.18% # Number of instructions issued per FU type, per thread (Count)
system.cpu.statIssuedInstType_0::SimdFloatCvt            0      0.00%     62.18% # Number of instructions issued per FU type, per thread (Count)
system.cpu.statIssuedInstType_0::SimdFloatDiv            0      0.00%     62.18% # Number of instructions issued per FU type, per thread (Count)
system.cpu.statIssuedInstType_0::SimdFloatMisc            0      0.00%     62.18% # Number of instructions issued per FU type, per thread (Count)
system.cpu.statIssuedInstType_0::SimdFloatMult            0      0.00%     62.18% # Number of instructions issued per FU type, per thread (Count)
system.cpu.statIssuedInstType_0::SimdFloatMultAcc            0      0.00%     62.18% # Number of instructions issued per FU type, per thread (Count)
system.cpu.statIssuedInstType_0::SimdFloatSqrt            0      0.00%     62.18% # Number of instructions issued per FU type, per thread (Count)
system.cpu.statIssuedInstType_0::SimdReduceAdd            0      0.00%     62.18% # Number of instructions issued per FU type, per thread (Count)
system.cpu.statIssuedInstType_0::SimdReduceAlu            0      0.00%     62.18% # Number of instructions issued per FU type, per thread (Count)
system.cpu.statIssuedInstType_0::SimdReduceCmp            0      0.00%     62.18% # Number of instructions issued per FU type, per thread (Count)
system.cpu.statIssuedInstType_0::SimdFloatReduceAdd            0      0.00%     62.18% # Number of instructions issued per FU type, per thread (Count)
system.cpu.statIssuedInstType_0::SimdFloatReduceCmp            0      0.00%     62.18% # Number of instructions issued per FU type, per thread (Count)
system.cpu.statIssuedInstType_0::SimdAes            0      0.00%     62.18% # Number of instructions issued per FU type, per thread (Count)
system.cpu.statIssuedInstType_0::SimdAesMix            0      0.00%     62.18% # Number of instructions issued per FU type, per thread (Count)
system.cpu.statIssuedInstType_0::SimdSha1Hash            0      0.00%     62.18% # Number of instructions issued per FU type, per thread (Count)
system.cpu.statIssuedInstType_0::SimdSha1Hash2            0      0.00%     62.18% # Number of instructions issued per FU type, per thread (Count)
system.cpu.statIssuedInstType_0::SimdSha256Hash            0      0.00%     62.18% # Number of instructions issued per FU type, per thread (Count)
system.cpu.statIssuedInstType_0::SimdSha256Hash2            0      0.00%     62.18% # Number of instructions issued per FU type, per thread (Count)
system.cpu.statIssuedInstType_0::SimdShaSigma2            0      0.00%     62.18% # Number of instructions issued per FU type, per thread (Count)
system.cpu.statIssuedInstType_0::SimdShaSigma3            0      0.00%     62.18% # Number of instructions issued per FU type, per thread (Count)
system.cpu.statIssuedInstType_0::SimdPredAlu            0      0.00%     62.18% # Number of instructions issued per FU type, per thread (Count)
system.cpu.statIssuedInstType_0::MemRead      1412830     23.75%     85.93% # Number of instructions issued per FU type, per thread (Count)
system.cpu.statIssuedInstType_0::MemWrite       837208     14.07%    100.00% # Number of instructions issued per FU type, per thread (Count)
system.cpu.statIssuedInstType_0::FloatMemRead            0      0.00%    100.00% # Number of instructions issued per FU type, per thread (Count)
system.cpu.statIssuedInstType_0::FloatMemWrite            0      0.00%    100.00% # Number of instructions issued per FU type, per thread (Count)
system.cpu.statIssuedInstType_0::IprAccess            0      0.00%    100.00% # Number of instructions issued per FU type, per thread (Count)
system.cpu.statIssuedInstType_0::InstPrefetch            0      0.00%    100.00% # Number of instructions issued per FU type, per thread (Count)
system.cpu.statIssuedInstType_0::total        5949912                       # Number of instructions issued per FU type, per thread (Count)
system.cpu.issueRate                         1.217719                       # Inst issue rate ((Count/Cycle))
system.cpu.fuBusy                              163036                       # FU busy when requested (Count)
system.cpu.fuBusyRate                        0.027401                       # FU busy rate (busy events/executed inst) ((Count/Count))
system.cpu.intInstQueueReads                 16523241                       # Number of integer instruction queue reads (Count)
system.cpu.intInstQueueWrites                 6882570                       # Number of integer instruction queue writes (Count)
system.cpu.intInstQueueWakeupAccesses         5656684                       # Number of integer instruction queue wakeup accesses (Count)
system.cpu.fpInstQueueReads                         0                       # Number of floating instruction queue reads (Count)
system.cpu.fpInstQueueWrites                        0                       # Number of floating instruction queue writes (Count)
system.cpu.fpInstQueueWakeupAccesses                0                       # Number of floating instruction queue wakeup accesses (Count)
system.cpu.vecInstQueueReads                   387135                       # Number of vector instruction queue reads (Count)
system.cpu.vecInstQueueWrites                  197314                       # Number of vector instruction queue writes (Count)
system.cpu.vecInstQueueWakeupAccesses          186512                       # Number of vector instruction queue wakeup accesses (Count)
system.cpu.intAluAccesses                     5915080                       # Number of integer alu accesses (Count)
system.cpu.fpAluAccesses                            0                       # Number of floating point alu accesses (Count)
system.cpu.vecAluAccesses                      188367                       # Number of vector alu accesses (Count)
system.cpu.numInsts                           5919621                       # Number of executed instructions (Count)
system.cpu.numLoadInsts                       1400921                       # Number of load instructions executed (Count)
system.cpu.numSquashedInsts                     30291                       # Number of squashed instructions skipped in execute (Count)
system.cpu.numSwp                                   0                       # Number of swp insts executed (Count)
system.cpu.numNop                               14071                       # Number of nop insts executed (Count)
system.cpu.numRefs                            2228027                       # Number of memory reference insts executed (Count)
system.cpu.numBranches                         825952                       # Number of branches executed (Count)
system.cpu.numStoreInsts                       827106                       # Number of stores executed (Count)
system.cpu.numRate                           1.211519                       # Inst execution rate ((Count/Cycle))
system.cpu.timesIdled                             514                       # Number of times that the entire CPU went into an idle state and unscheduled itself (Count)
system.cpu.idleCycles                           40272                       # Total number of cycles that the CPU has spent unscheduled due to idling (Cycle)
system.cpu.committedInsts                     4846742                       # Number of Instructions Simulated (Count)
system.cpu.committedOps                       5375320                       # Number of Ops (including micro ops) Simulated (Count)
system.cpu.cpi                               1.008123                       # CPI: Cycles Per Instruction ((Cycle/Count))
system.cpu.totalCpi                          1.008123                       # CPI: Total CPI of All Threads ((Cycle/Count))
system.cpu.ipc                               0.991942                       # IPC: Instructions Per Cycle ((Count/Cycle))
system.cpu.totalIpc                          0.991942                       # IPC: Total IPC of All Threads ((Count/Cycle))
system.cpu.intRegfileReads                    6928520                       # Number of integer regfile reads (Count)
system.cpu.intRegfileWrites                   4158299                       # Number of integer regfile writes (Count)
system.cpu.vecRegfileReads                     248826                       # number of vector regfile reads (Count)
system.cpu.vecRegfileWrites                    152147                       # number of vector regfile writes (Count)
system.cpu.ccRegfileReads                     1831632                       # number of cc regfile reads (Count)
system.cpu.ccRegfileWrites                    1698459                       # number of cc regfile writes (Count)
system.cpu.miscRegfileReads                  11839112                       # number of misc regfile reads (Count)
system.cpu.miscRegfileWrites                       45                       # number of misc regfile writes (Count)
system.cpu.MemDepUnit__0.insertedLoads        1482927                       # Number of loads inserted to the mem dependence unit. (Count)
system.cpu.MemDepUnit__0.insertedStores        911491                       # Number of stores inserted to the mem dependence unit. (Count)
system.cpu.MemDepUnit__0.conflictingLoads       583682                       # Number of conflicting loads. (Count)
system.cpu.MemDepUnit__0.conflictingStores       189686                       # Number of conflicting stores. (Count)
system.cpu.MemDepUnit__1.insertedLoads              0                       # Number of loads inserted to the mem dependence unit. (Count)
system.cpu.MemDepUnit__1.insertedStores             0                       # Number of stores inserted to the mem dependence unit. (Count)
system.cpu.MemDepUnit__1.conflictingLoads            0                       # Number of conflicting loads. (Count)
system.cpu.MemDepUnit__1.conflictingStores            0                       # Number of conflicting stores. (Count)
system.cpu.MemDepUnit__2.insertedLoads              0                       # Number of loads inserted to the mem dependence unit. (Count)
system.cpu.MemDepUnit__2.insertedStores             0                       # Number of stores inserted to the mem dependence unit. (Count)
system.cpu.MemDepUnit__2.conflictingLoads            0                       # Number of conflicting loads. (Count)
system.cpu.MemDepUnit__2.conflictingStores            0                       # Number of conflicting stores. (Count)
system.cpu.MemDepUnit__3.insertedLoads              0                       # Number of loads inserted to the mem dependence unit. (Count)
system.cpu.MemDepUnit__3.insertedStores             0                       # Number of stores inserted to the mem dependence unit. (Count)
system.cpu.MemDepUnit__3.conflictingLoads            0                       # Number of conflicting loads. (Count)
system.cpu.MemDepUnit__3.conflictingStores            0                       # Number of conflicting stores. (Count)
system.cpu.branchPred.lookups                  938393                       # Number of BP lookups (Count)
system.cpu.branchPred.condPredicted            720960                       # Number of conditional branches predicted (Count)
system.cpu.branchPred.condIncorrect             18509                       # Number of conditional branches incorrect (Count)
system.cpu.branchPred.BTBLookups               501681                       # Number of BTB lookups (Count)
system.cpu.branchPred.BTBHits                  496160                       # Number of BTB hits (Count)
system.cpu.branchPred.BTBHitRatio            0.988995                       # BTB Hit Ratio (Ratio)
system.cpu.branchPred.RASUsed                   70159                       # Number of times the RAS was used to get a target. (Count)
system.cpu.branchPred.RASIncorrect                  9                       # Number of incorrect RAS predictions. (Count)
system.cpu.branchPred.indirectLookups           12926                       # Number of indirect predictor lookups. (Count)
system.cpu.branchPred.indirectHits              12531                       # Number of indirect target hits. (Count)
system.cpu.branchPred.indirectMisses              395                       # Number of indirect misses. (Count)
system.cpu.branchPred.indirectMispredicted           72                       # Number of mispredicted indirect branches. (Count)
system.cpu.commit.commitSquashedInsts          854159                       # The number of squashed insts skipped by commit (Count)
system.cpu.commit.commitNonSpecStalls            2107                       # The number of times commit has been forced to stall to communicate backwards (Count)
system.cpu.commit.branchMispredicts             18169                       # The number of times a branch was mispredicted (Count)
system.cpu.commit.numCommittedDist::samples      4729483                       # Number of insts commited each cycle (Count)
system.cpu.commit.numCommittedDist::mean     1.139164                       # Number of insts commited each cycle (Count)
system.cpu.commit.numCommittedDist::stdev     2.526897                       # Number of insts commited each cycle (Count)
system.cpu.commit.numCommittedDist::underflows            0      0.00%      0.00% # Number of insts commited each cycle (Count)
system.cpu.commit.numCommittedDist::0         3597295     76.06%     76.06% # Number of insts commited each cycle (Count)
system.cpu.commit.numCommittedDist::1          270211      5.71%     81.77% # Number of insts commited each cycle (Count)
system.cpu.commit.numCommittedDist::2          192922      4.08%     85.85% # Number of insts commited each cycle (Count)
system.cpu.commit.numCommittedDist::3           33968      0.72%     86.57% # Number of insts commited each cycle (Count)
system.cpu.commit.numCommittedDist::4           74861      1.58%     88.15% # Number of insts commited each cycle (Count)
system.cpu.commit.numCommittedDist::5           26670      0.56%     88.72% # Number of insts commited each cycle (Count)
system.cpu.commit.numCommittedDist::6           24779      0.52%     89.24% # Number of insts commited each cycle (Count)
system.cpu.commit.numCommittedDist::7           21984      0.46%     89.71% # Number of insts commited each cycle (Count)
system.cpu.commit.numCommittedDist::8          486793     10.29%    100.00% # Number of insts commited each cycle (Count)
system.cpu.commit.numCommittedDist::overflows            0      0.00%    100.00% # Number of insts commited each cycle (Count)
system.cpu.commit.numCommittedDist::min_value            0                       # Number of insts commited each cycle (Count)
system.cpu.commit.numCommittedDist::max_value            8                       # Number of insts commited each cycle (Count)
system.cpu.commit.numCommittedDist::total      4729483                       # Number of insts commited each cycle (Count)
system.cpu.commit.instsCommitted              4859081                       # Number of instructions committed (Count)
system.cpu.commit.opsCommitted                5387659                       # Number of ops (including micro ops) committed (Count)
system.cpu.commit.memRefs                     1928804                       # Number of memory references committed (Count)
system.cpu.commit.loads                       1164917                       # Number of loads committed (Count)
system.cpu.commit.amos                             14                       # Number of atomic instructions committed (Count)
system.cpu.commit.membars                          18                       # Number of memory barriers committed (Count)
system.cpu.commit.branches                     786964                       # Number of branches committed (Count)
system.cpu.commit.vectorInstructions           184574                       # Number of committed Vector instructions. (Count)
system.cpu.commit.floating                          0                       # Number of committed floating point instructions. (Count)
system.cpu.commit.integer                     4759112                       # Number of committed integer instructions. (Count)
system.cpu.commit.functionCalls                 57544                       # Number of function calls committed. (Count)
system.cpu.commit.committedInstType_0::No_OpClass         9394      0.17%      0.17% # Class of committed instruction (Count)
system.cpu.commit.committedInstType_0::IntAlu      3267747     60.65%     60.83% # Class of committed instruction (Count)
system.cpu.commit.committedInstType_0::IntMult        58153      1.08%     61.91% # Class of committed instruction (Count)
system.cpu.commit.committedInstType_0::IntDiv            3      0.00%     61.91% # Class of committed instruction (Count)
system.cpu.commit.committedInstType_0::FloatAdd            0      0.00%     61.91% # Class of committed instruction (Count)
system.cpu.commit.committedInstType_0::FloatCmp            0      0.00%     61.91% # Class of committed instruction (Count)
system.cpu.commit.committedInstType_0::FloatCvt            0      0.00%     61.91% # Class of committed instruction (Count)
system.cpu.commit.committedInstType_0::FloatMult            0      0.00%     61.91% # Class of committed instruction (Count)
system.cpu.commit.committedInstType_0::FloatMultAcc            0      0.00%     61.91% # Class of committed instruction (Count)
system.cpu.commit.committedInstType_0::FloatDiv            0      0.00%     61.91% # Class of committed instruction (Count)
system.cpu.commit.committedInstType_0::FloatMisc            0      0.00%     61.91% # Class of committed instruction (Count)
system.cpu.commit.committedInstType_0::FloatSqrt            0      0.00%     61.91% # Class of committed instruction (Count)
system.cpu.commit.committedInstType_0::SimdAdd        20098      0.37%     62.28% # Class of committed instruction (Count)
system.cpu.commit.committedInstType_0::SimdAddAcc            0      0.00%     62.28% # Class of committed instruction (Count)
system.cpu.commit.committedInstType_0::SimdAlu        38843      0.72%     63.00% # Class of committed instruction (Count)
system.cpu.commit.committedInstType_0::SimdCmp        37504      0.70%     63.70% # Class of committed instruction (Count)
system.cpu.commit.committedInstType_0::SimdCvt            0      0.00%     63.70% # Class of committed instruction (Count)
system.cpu.commit.committedInstType_0::SimdMisc        27113      0.50%     64.20% # Class of committed instruction (Count)
system.cpu.commit.committedInstType_0::SimdMult            0      0.00%     64.20% # Class of committed instruction (Count)
system.cpu.commit.committedInstType_0::SimdMultAcc            0      0.00%     64.20% # Class of committed instruction (Count)
system.cpu.commit.committedInstType_0::SimdShift            0      0.00%     64.20% # Class of committed instruction (Count)
system.cpu.commit.committedInstType_0::SimdShiftAcc            0      0.00%     64.20% # Class of committed instruction (Count)
system.cpu.commit.committedInstType_0::SimdDiv            0      0.00%     64.20% # Class of committed instruction (Count)
system.cpu.commit.committedInstType_0::SimdSqrt            0      0.00%     64.20% # Class of committed instruction (Count)
system.cpu.commit.committedInstType_0::SimdFloatAdd            0      0.00%     64.20% # Class of committed instruction (Count)
system.cpu.commit.committedInstType_0::SimdFloatAlu            0      0.00%     64.20% # Class of committed instruction (Count)
system.cpu.commit.committedInstType_0::SimdFloatCmp            0      0.00%     64.20% # Class of committed instruction (Count)
system.cpu.commit.committedInstType_0::SimdFloatCvt            0      0.00%     64.20% # Class of committed instruction (Count)
system.cpu.commit.committedInstType_0::SimdFloatDiv            0      0.00%     64.20% # Class of committed instruction (Count)
system.cpu.commit.committedInstType_0::SimdFloatMisc            0      0.00%     64.20% # Class of committed instruction (Count)
system.cpu.commit.committedInstType_0::SimdFloatMult            0      0.00%     64.20% # Class of committed instruction (Count)
system.cpu.commit.committedInstType_0::SimdFloatMultAcc            0      0.00%     64.20% # Class of committed instruction (Count)
system.cpu.commit.committedInstType_0::SimdFloatSqrt            0      0.00%     64.20% # Class of committed instruction (Count)
system.cpu.commit.committedInstType_0::SimdReduceAdd            0      0.00%     64.20% # Class of committed instruction (Count)
system.cpu.commit.committedInstType_0::SimdReduceAlu            0      0.00%     64.20% # Class of committed instruction (Count)
system.cpu.commit.committedInstType_0::SimdReduceCmp            0      0.00%     64.20% # Class of committed instruction (Count)
system.cpu.commit.committedInstType_0::SimdFloatReduceAdd            0      0.00%     64.20% # Class of committed instruction (Count)
system.cpu.commit.committedInstType_0::SimdFloatReduceCmp            0      0.00%     64.20% # Class of committed instruction (Count)
system.cpu.commit.committedInstType_0::SimdAes            0      0.00%     64.20% # Class of committed instruction (Count)
system.cpu.commit.committedInstType_0::SimdAesMix            0      0.00%     64.20% # Class of committed instruction (Count)
system.cpu.commit.committedInstType_0::SimdSha1Hash            0      0.00%     64.20% # Class of committed instruction (Count)
system.cpu.commit.committedInstType_0::SimdSha1Hash2            0      0.00%     64.20% # Class of committed instruction (Count)
system.cpu.commit.committedInstType_0::SimdSha256Hash            0      0.00%     64.20% # Class of committed instruction (Count)
system.cpu.commit.committedInstType_0::SimdSha256Hash2            0      0.00%     64.20% # Class of committed instruction (Count)
system.cpu.commit.committedInstType_0::SimdShaSigma2            0      0.00%     64.20% # Class of committed instruction (Count)
system.cpu.commit.committedInstType_0::SimdShaSigma3            0      0.00%     64.20% # Class of committed instruction (Count)
system.cpu.commit.committedInstType_0::SimdPredAlu            0      0.00%     64.20% # Class of committed instruction (Count)
system.cpu.commit.committedInstType_0::MemRead      1164917     21.62%     85.82% # Class of committed instruction (Count)
system.cpu.commit.committedInstType_0::MemWrite       763887     14.18%    100.00% # Class of committed instruction (Count)
system.cpu.commit.committedInstType_0::FloatMemRead            0      0.00%    100.00% # Class of committed instruction (Count)
system.cpu.commit.committedInstType_0::FloatMemWrite            0      0.00%    100.00% # Class of committed instruction (Count)
system.cpu.commit.committedInstType_0::IprAccess            0      0.00%    100.00% # Class of committed instruction (Count)
system.cpu.commit.committedInstType_0::InstPrefetch            0      0.00%    100.00% # Class of committed instruction (Count)
system.cpu.commit.committedInstType_0::total      5387659                       # Class of committed instruction (Count)
system.cpu.commit.commitEligibleSamples        486793                       # number cycles where commit BW limit reached (Cycle)
system.cpu.dcache.demandHits::cpu.data        1475994                       # number of demand (read+write) hits (Count)
system.cpu.dcache.demandHits::total           1475994                       # number of demand (read+write) hits (Count)
system.cpu.dcache.overallHits::cpu.data       1475996                       # number of overall hits (Count)
system.cpu.dcache.overallHits::total          1475996                       # number of overall hits (Count)
system.cpu.dcache.demandMisses::cpu.data       250053                       # number of demand (read+write) misses (Count)
system.cpu.dcache.demandMisses::total          250053                       # number of demand (read+write) misses (Count)
system.cpu.dcache.overallMisses::cpu.data       250057                       # number of overall misses (Count)
system.cpu.dcache.overallMisses::total         250057                       # number of overall misses (Count)
system.cpu.dcache.demandMissLatency::cpu.data   8100064675                       # number of demand (read+write) miss ticks (Tick)
system.cpu.dcache.demandMissLatency::total   8100064675                       # number of demand (read+write) miss ticks (Tick)
system.cpu.dcache.overallMissLatency::cpu.data   8100064675                       # number of overall miss ticks (Tick)
system.cpu.dcache.overallMissLatency::total   8100064675                       # number of overall miss ticks (Tick)
system.cpu.dcache.demandAccesses::cpu.data      1726047                       # number of demand (read+write) accesses (Count)
system.cpu.dcache.demandAccesses::total       1726047                       # number of demand (read+write) accesses (Count)
system.cpu.dcache.overallAccesses::cpu.data      1726053                       # number of overall (read+write) accesses (Count)
system.cpu.dcache.overallAccesses::total      1726053                       # number of overall (read+write) accesses (Count)
system.cpu.dcache.demandMissRate::cpu.data     0.144870                       # miss rate for demand accesses (Ratio)
system.cpu.dcache.demandMissRate::total      0.144870                       # miss rate for demand accesses (Ratio)
system.cpu.dcache.overallMissRate::cpu.data     0.144872                       # miss rate for overall accesses (Ratio)
system.cpu.dcache.overallMissRate::total     0.144872                       # miss rate for overall accesses (Ratio)
system.cpu.dcache.demandAvgMissLatency::cpu.data 32393.391301                       # average overall miss latency ((Cycle/Count))
system.cpu.dcache.demandAvgMissLatency::total 32393.391301                       # average overall miss latency ((Cycle/Count))
system.cpu.dcache.overallAvgMissLatency::cpu.data 32392.873125                       # average overall miss latency ((Cycle/Count))
system.cpu.dcache.overallAvgMissLatency::total 32392.873125                       # average overall miss latency ((Cycle/Count))
system.cpu.dcache.blockedCycles::no_mshrs       281458                       # number of cycles access was blocked (Cycle)
system.cpu.dcache.blockedCycles::no_targets         2226                       # number of cycles access was blocked (Cycle)
system.cpu.dcache.blockedCauses::no_mshrs        10869                       # number of times access was blocked (Count)
system.cpu.dcache.blockedCauses::no_targets          103                       # number of times access was blocked (Count)
system.cpu.dcache.avgBlocked::no_mshrs      25.895483                       # average number of cycles each access was blocked ((Cycle/Count))
system.cpu.dcache.avgBlocked::no_targets    21.611650                       # average number of cycles each access was blocked ((Cycle/Count))
system.cpu.dcache.writebacks::writebacks        34444                       # number of writebacks (Count)
system.cpu.dcache.writebacks::total             34444                       # number of writebacks (Count)
system.cpu.dcache.demandMshrHits::cpu.data       177839                       # number of demand (read+write) MSHR hits (Count)
system.cpu.dcache.demandMshrHits::total        177839                       # number of demand (read+write) MSHR hits (Count)
system.cpu.dcache.overallMshrHits::cpu.data       177839                       # number of overall MSHR hits (Count)
system.cpu.dcache.overallMshrHits::total       177839                       # number of overall MSHR hits (Count)
system.cpu.dcache.demandMshrMisses::cpu.data        72214                       # number of demand (read+write) MSHR misses (Count)
system.cpu.dcache.demandMshrMisses::total        72214                       # number of demand (read+write) MSHR misses (Count)
system.cpu.dcache.overallMshrMisses::cpu.data        72218                       # number of overall MSHR misses (Count)
system.cpu.dcache.overallMshrMisses::total        72218                       # number of overall MSHR misses (Count)
system.cpu.dcache.demandMshrMissLatency::cpu.data   2898206759                       # number of demand (read+write) MSHR miss ticks (Tick)
system.cpu.dcache.demandMshrMissLatency::total   2898206759                       # number of demand (read+write) MSHR miss ticks (Tick)
system.cpu.dcache.overallMshrMissLatency::cpu.data   2898519759                       # number of overall MSHR miss ticks (Tick)
system.cpu.dcache.overallMshrMissLatency::total   2898519759                       # number of overall MSHR miss ticks (Tick)
system.cpu.dcache.demandMshrMissRate::cpu.data     0.041838                       # mshr miss ratio for demand accesses (Ratio)
system.cpu.dcache.demandMshrMissRate::total     0.041838                       # mshr miss ratio for demand accesses (Ratio)
system.cpu.dcache.overallMshrMissRate::cpu.data     0.041840                       # mshr miss ratio for overall accesses (Ratio)
system.cpu.dcache.overallMshrMissRate::total     0.041840                       # mshr miss ratio for overall accesses (Ratio)
system.cpu.dcache.demandAvgMshrMissLatency::cpu.data 40133.585717                       # average overall mshr miss latency ((Cycle/Count))
system.cpu.dcache.demandAvgMshrMissLatency::total 40133.585717                       # average overall mshr miss latency ((Cycle/Count))
system.cpu.dcache.overallAvgMshrMissLatency::cpu.data 40135.696904                       # average overall mshr miss latency ((Cycle/Count))
system.cpu.dcache.overallAvgMshrMissLatency::total 40135.696904                       # average overall mshr miss latency ((Cycle/Count))
system.cpu.dcache.replacements                  72190                       # number of replacements (Count)
system.cpu.dcache.LoadLockedReq.hits::cpu.data            4                       # number of LoadLockedReq hits (Count)
system.cpu.dcache.LoadLockedReq.hits::total            4                       # number of LoadLockedReq hits (Count)
system.cpu.dcache.LoadLockedReq.misses::cpu.data            3                       # number of LoadLockedReq misses (Count)
system.cpu.dcache.LoadLockedReq.misses::total            3                       # number of LoadLockedReq misses (Count)
system.cpu.dcache.LoadLockedReq.missLatency::cpu.data       290500                       # number of LoadLockedReq miss ticks (Tick)
system.cpu.dcache.LoadLockedReq.missLatency::total       290500                       # number of LoadLockedReq miss ticks (Tick)
system.cpu.dcache.LoadLockedReq.accesses::cpu.data            7                       # number of LoadLockedReq accesses(hits+misses) (Count)
system.cpu.dcache.LoadLockedReq.accesses::total            7                       # number of LoadLockedReq accesses(hits+misses) (Count)
system.cpu.dcache.LoadLockedReq.missRate::cpu.data     0.428571                       # miss rate for LoadLockedReq accesses (Ratio)
system.cpu.dcache.LoadLockedReq.missRate::total     0.428571                       # miss rate for LoadLockedReq accesses (Ratio)
system.cpu.dcache.LoadLockedReq.avgMissLatency::cpu.data 96833.333333                       # average LoadLockedReq miss latency ((Tick/Count))
system.cpu.dcache.LoadLockedReq.avgMissLatency::total 96833.333333                       # average LoadLockedReq miss latency ((Tick/Count))
system.cpu.dcache.LoadLockedReq.mshrMisses::cpu.data            3                       # number of LoadLockedReq MSHR misses (Count)
system.cpu.dcache.LoadLockedReq.mshrMisses::total            3                       # number of LoadLockedReq MSHR misses (Count)
system.cpu.dcache.LoadLockedReq.mshrMissLatency::cpu.data       287500                       # number of LoadLockedReq MSHR miss ticks (Tick)
system.cpu.dcache.LoadLockedReq.mshrMissLatency::total       287500                       # number of LoadLockedReq MSHR miss ticks (Tick)
system.cpu.dcache.LoadLockedReq.mshrMissRate::cpu.data     0.428571                       # mshr miss rate for LoadLockedReq accesses (Ratio)
system.cpu.dcache.LoadLockedReq.mshrMissRate::total     0.428571                       # mshr miss rate for LoadLockedReq accesses (Ratio)
system.cpu.dcache.LoadLockedReq.avgMshrMissLatency::cpu.data 95833.333333                       # average LoadLockedReq mshr miss latency ((Tick/Count))
system.cpu.dcache.LoadLockedReq.avgMshrMissLatency::total 95833.333333                       # average LoadLockedReq mshr miss latency ((Tick/Count))
system.cpu.dcache.ReadReq.hits::cpu.data       830118                       # number of ReadReq hits (Count)
system.cpu.dcache.ReadReq.hits::total          830118                       # number of ReadReq hits (Count)
system.cpu.dcache.ReadReq.misses::cpu.data       132060                       # number of ReadReq misses (Count)
system.cpu.dcache.ReadReq.misses::total        132060                       # number of ReadReq misses (Count)
system.cpu.dcache.ReadReq.missLatency::cpu.data   5186994500                       # number of ReadReq miss ticks (Tick)
system.cpu.dcache.ReadReq.missLatency::total   5186994500                       # number of ReadReq miss ticks (Tick)
system.cpu.dcache.ReadReq.accesses::cpu.data       962178                       # number of ReadReq accesses(hits+misses) (Count)
system.cpu.dcache.ReadReq.accesses::total       962178                       # number of ReadReq accesses(hits+misses) (Count)
system.cpu.dcache.ReadReq.missRate::cpu.data     0.137251                       # miss rate for ReadReq accesses (Ratio)
system.cpu.dcache.ReadReq.missRate::total     0.137251                       # miss rate for ReadReq accesses (Ratio)
system.cpu.dcache.ReadReq.avgMissLatency::cpu.data 39277.559443                       # average ReadReq miss latency ((Tick/Count))
system.cpu.dcache.ReadReq.avgMissLatency::total 39277.559443                       # average ReadReq miss latency ((Tick/Count))
system.cpu.dcache.ReadReq.mshrHits::cpu.data        85605                       # number of ReadReq MSHR hits (Count)
system.cpu.dcache.ReadReq.mshrHits::total        85605                       # number of ReadReq MSHR hits (Count)
system.cpu.dcache.ReadReq.mshrMisses::cpu.data        46455                       # number of ReadReq MSHR misses (Count)
system.cpu.dcache.ReadReq.mshrMisses::total        46455                       # number of ReadReq MSHR misses (Count)
system.cpu.dcache.ReadReq.mshrMissLatency::cpu.data   2285940500                       # number of ReadReq MSHR miss ticks (Tick)
system.cpu.dcache.ReadReq.mshrMissLatency::total   2285940500                       # number of ReadReq MSHR miss ticks (Tick)
system.cpu.dcache.ReadReq.mshrMissRate::cpu.data     0.048281                       # mshr miss rate for ReadReq accesses (Ratio)
system.cpu.dcache.ReadReq.mshrMissRate::total     0.048281                       # mshr miss rate for ReadReq accesses (Ratio)
system.cpu.dcache.ReadReq.avgMshrMissLatency::cpu.data 49207.631041                       # average ReadReq mshr miss latency ((Tick/Count))
system.cpu.dcache.ReadReq.avgMshrMissLatency::total 49207.631041                       # average ReadReq mshr miss latency ((Tick/Count))
system.cpu.dcache.SoftPFReq.hits::cpu.data            2                       # number of SoftPFReq hits (Count)
system.cpu.dcache.SoftPFReq.hits::total             2                       # number of SoftPFReq hits (Count)
system.cpu.dcache.SoftPFReq.misses::cpu.data            4                       # number of SoftPFReq misses (Count)
system.cpu.dcache.SoftPFReq.misses::total            4                       # number of SoftPFReq misses (Count)
system.cpu.dcache.SoftPFReq.accesses::cpu.data            6                       # number of SoftPFReq accesses(hits+misses) (Count)
system.cpu.dcache.SoftPFReq.accesses::total            6                       # number of SoftPFReq accesses(hits+misses) (Count)
system.cpu.dcache.SoftPFReq.missRate::cpu.data     0.666667                       # miss rate for SoftPFReq accesses (Ratio)
system.cpu.dcache.SoftPFReq.missRate::total     0.666667                       # miss rate for SoftPFReq accesses (Ratio)
system.cpu.dcache.SoftPFReq.mshrMisses::cpu.data            4                       # number of SoftPFReq MSHR misses (Count)
system.cpu.dcache.SoftPFReq.mshrMisses::total            4                       # number of SoftPFReq MSHR misses (Count)
system.cpu.dcache.SoftPFReq.mshrMissLatency::cpu.data       313000                       # number of SoftPFReq MSHR miss ticks (Tick)
system.cpu.dcache.SoftPFReq.mshrMissLatency::total       313000                       # number of SoftPFReq MSHR miss ticks (Tick)
system.cpu.dcache.SoftPFReq.mshrMissRate::cpu.data     0.666667                       # mshr miss rate for SoftPFReq accesses (Ratio)
system.cpu.dcache.SoftPFReq.mshrMissRate::total     0.666667                       # mshr miss rate for SoftPFReq accesses (Ratio)
system.cpu.dcache.SoftPFReq.avgMshrMissLatency::cpu.data        78250                       # average SoftPFReq mshr miss latency ((Tick/Count))
system.cpu.dcache.SoftPFReq.avgMshrMissLatency::total        78250                       # average SoftPFReq mshr miss latency ((Tick/Count))
system.cpu.dcache.StoreCondReq.hits::cpu.data            4                       # number of StoreCondReq hits (Count)
system.cpu.dcache.StoreCondReq.hits::total            4                       # number of StoreCondReq hits (Count)
system.cpu.dcache.StoreCondReq.accesses::cpu.data            4                       # number of StoreCondReq accesses(hits+misses) (Count)
system.cpu.dcache.StoreCondReq.accesses::total            4                       # number of StoreCondReq accesses(hits+misses) (Count)
system.cpu.dcache.SwapReq.hits::cpu.data           12                       # number of SwapReq hits (Count)
system.cpu.dcache.SwapReq.hits::total              12                       # number of SwapReq hits (Count)
system.cpu.dcache.SwapReq.misses::cpu.data            2                       # number of SwapReq misses (Count)
system.cpu.dcache.SwapReq.misses::total             2                       # number of SwapReq misses (Count)
system.cpu.dcache.SwapReq.missLatency::cpu.data        97500                       # number of SwapReq miss ticks (Tick)
system.cpu.dcache.SwapReq.missLatency::total        97500                       # number of SwapReq miss ticks (Tick)
system.cpu.dcache.SwapReq.accesses::cpu.data           14                       # number of SwapReq accesses(hits+misses) (Count)
system.cpu.dcache.SwapReq.accesses::total           14                       # number of SwapReq accesses(hits+misses) (Count)
system.cpu.dcache.SwapReq.missRate::cpu.data     0.142857                       # miss rate for SwapReq accesses (Ratio)
system.cpu.dcache.SwapReq.missRate::total     0.142857                       # miss rate for SwapReq accesses (Ratio)
system.cpu.dcache.SwapReq.avgMissLatency::cpu.data        48750                       # average SwapReq miss latency ((Tick/Count))
system.cpu.dcache.SwapReq.avgMissLatency::total        48750                       # average SwapReq miss latency ((Tick/Count))
system.cpu.dcache.SwapReq.mshrHits::cpu.data            1                       # number of SwapReq MSHR hits (Count)
system.cpu.dcache.SwapReq.mshrHits::total            1                       # number of SwapReq MSHR hits (Count)
system.cpu.dcache.SwapReq.mshrMisses::cpu.data            1                       # number of SwapReq MSHR misses (Count)
system.cpu.dcache.SwapReq.mshrMisses::total            1                       # number of SwapReq MSHR misses (Count)
system.cpu.dcache.SwapReq.mshrMissLatency::cpu.data        50500                       # number of SwapReq MSHR miss ticks (Tick)
system.cpu.dcache.SwapReq.mshrMissLatency::total        50500                       # number of SwapReq MSHR miss ticks (Tick)
system.cpu.dcache.SwapReq.mshrMissRate::cpu.data     0.071429                       # mshr miss rate for SwapReq accesses (Ratio)
system.cpu.dcache.SwapReq.mshrMissRate::total     0.071429                       # mshr miss rate for SwapReq accesses (Ratio)
system.cpu.dcache.SwapReq.avgMshrMissLatency::cpu.data        50500                       # average SwapReq mshr miss latency ((Tick/Count))
system.cpu.dcache.SwapReq.avgMshrMissLatency::total        50500                       # average SwapReq mshr miss latency ((Tick/Count))
system.cpu.dcache.WriteLineReq.misses::cpu.data          257                       # number of WriteLineReq misses (Count)
system.cpu.dcache.WriteLineReq.misses::total          257                       # number of WriteLineReq misses (Count)
system.cpu.dcache.WriteLineReq.missLatency::cpu.data      4557302                       # number of WriteLineReq miss ticks (Tick)
system.cpu.dcache.WriteLineReq.missLatency::total      4557302                       # number of WriteLineReq miss ticks (Tick)
system.cpu.dcache.WriteLineReq.accesses::cpu.data          257                       # number of WriteLineReq accesses(hits+misses) (Count)
system.cpu.dcache.WriteLineReq.accesses::total          257                       # number of WriteLineReq accesses(hits+misses) (Count)
system.cpu.dcache.WriteLineReq.missRate::cpu.data            1                       # miss rate for WriteLineReq accesses (Ratio)
system.cpu.dcache.WriteLineReq.missRate::total            1                       # miss rate for WriteLineReq accesses (Ratio)
system.cpu.dcache.WriteLineReq.avgMissLatency::cpu.data 17732.692607                       # average WriteLineReq miss latency ((Tick/Count))
system.cpu.dcache.WriteLineReq.avgMissLatency::total 17732.692607                       # average WriteLineReq miss latency ((Tick/Count))
system.cpu.dcache.WriteLineReq.mshrMisses::cpu.data          257                       # number of WriteLineReq MSHR misses (Count)
system.cpu.dcache.WriteLineReq.mshrMisses::total          257                       # number of WriteLineReq MSHR misses (Count)
system.cpu.dcache.WriteLineReq.mshrMissLatency::cpu.data      4300302                       # number of WriteLineReq MSHR miss ticks (Tick)
system.cpu.dcache.WriteLineReq.mshrMissLatency::total      4300302                       # number of WriteLineReq MSHR miss ticks (Tick)
system.cpu.dcache.WriteLineReq.mshrMissRate::cpu.data            1                       # mshr miss rate for WriteLineReq accesses (Ratio)
system.cpu.dcache.WriteLineReq.mshrMissRate::total            1                       # mshr miss rate for WriteLineReq accesses (Ratio)
system.cpu.dcache.WriteLineReq.avgMshrMissLatency::cpu.data 16732.692607                       # average WriteLineReq mshr miss latency ((Tick/Count))
system.cpu.dcache.WriteLineReq.avgMshrMissLatency::total 16732.692607                       # average WriteLineReq mshr miss latency ((Tick/Count))
system.cpu.dcache.WriteReq.hits::cpu.data       645876                       # number of WriteReq hits (Count)
system.cpu.dcache.WriteReq.hits::total         645876                       # number of WriteReq hits (Count)
system.cpu.dcache.WriteReq.misses::cpu.data       117736                       # number of WriteReq misses (Count)
system.cpu.dcache.WriteReq.misses::total       117736                       # number of WriteReq misses (Count)
system.cpu.dcache.WriteReq.missLatency::cpu.data   2908512873                       # number of WriteReq miss ticks (Tick)
system.cpu.dcache.WriteReq.missLatency::total   2908512873                       # number of WriteReq miss ticks (Tick)
system.cpu.dcache.WriteReq.accesses::cpu.data       763612                       # number of WriteReq accesses(hits+misses) (Count)
system.cpu.dcache.WriteReq.accesses::total       763612                       # number of WriteReq accesses(hits+misses) (Count)
system.cpu.dcache.WriteReq.missRate::cpu.data     0.154183                       # miss rate for WriteReq accesses (Ratio)
system.cpu.dcache.WriteReq.missRate::total     0.154183                       # miss rate for WriteReq accesses (Ratio)
system.cpu.dcache.WriteReq.avgMissLatency::cpu.data 24703.683436                       # average WriteReq miss latency ((Tick/Count))
system.cpu.dcache.WriteReq.avgMissLatency::total 24703.683436                       # average WriteReq miss latency ((Tick/Count))
system.cpu.dcache.WriteReq.mshrHits::cpu.data        92234                       # number of WriteReq MSHR hits (Count)
system.cpu.dcache.WriteReq.mshrHits::total        92234                       # number of WriteReq MSHR hits (Count)
system.cpu.dcache.WriteReq.mshrMisses::cpu.data        25502                       # number of WriteReq MSHR misses (Count)
system.cpu.dcache.WriteReq.mshrMisses::total        25502                       # number of WriteReq MSHR misses (Count)
system.cpu.dcache.WriteReq.mshrMissLatency::cpu.data    607965957                       # number of WriteReq MSHR miss ticks (Tick)
system.cpu.dcache.WriteReq.mshrMissLatency::total    607965957                       # number of WriteReq MSHR miss ticks (Tick)
system.cpu.dcache.WriteReq.mshrMissRate::cpu.data     0.033397                       # mshr miss rate for WriteReq accesses (Ratio)
system.cpu.dcache.WriteReq.mshrMissRate::total     0.033397                       # mshr miss rate for WriteReq accesses (Ratio)
system.cpu.dcache.WriteReq.avgMshrMissLatency::cpu.data 23839.932437                       # average WriteReq mshr miss latency ((Tick/Count))
system.cpu.dcache.WriteReq.avgMshrMissLatency::total 23839.932437                       # average WriteReq mshr miss latency ((Tick/Count))
system.cpu.dcache.power_state.pwrStateResidencyTicks::UNDEFINED   2443056000                       # Cumulative time (in ticks) in various power states (Tick)
system.cpu.dcache.tags.tagsInUse            31.977502                       # Average ticks per tags in use ((Tick/Count))
system.cpu.dcache.tags.totalRefs              1548238                       # Total number of references to valid blocks. (Count)
system.cpu.dcache.tags.sampledRefs              72222                       # Sample count of references to valid blocks. (Count)
system.cpu.dcache.tags.avgRefs              21.437207                       # Average number of references to valid blocks. ((Count/Count))
system.cpu.dcache.tags.warmupTick              145000                       # The tick when the warmup percentage was hit. (Tick)
system.cpu.dcache.tags.occupancies::cpu.data    31.977502                       # Average occupied blocks per tick, per requestor ((Count/Tick))
system.cpu.dcache.tags.avgOccs::cpu.data     0.999297                       # Average percentage of cache occupancy ((Ratio/Tick))
system.cpu.dcache.tags.avgOccs::total        0.999297                       # Average percentage of cache occupancy ((Ratio/Tick))
system.cpu.dcache.tags.occupanciesTaskId::1024           32                       # Occupied blocks per task id (Count)
system.cpu.dcache.tags.ageTaskId_1024::0           32                       # Occupied blocks per task id, per block age (Count)
system.cpu.dcache.tags.ratioOccsTaskId::1024            1                       # Ratio of occupied blocks and all blocks, per task id (Ratio)
system.cpu.dcache.tags.tagAccesses            3524378                       # Number of tag accesses (Count)
system.cpu.dcache.tags.dataAccesses           3524378                       # Number of data accesses (Count)
system.cpu.dcache.tags.power_state.pwrStateResidencyTicks::UNDEFINED   2443056000                       # Cumulative time (in ticks) in various power states (Tick)
system.cpu.decode.idleCycles                   523774                       # Number of cycles decode is idle (Cycle)
system.cpu.decode.blockedCycles               3232999                       # Number of cycles decode is blocked (Cycle)
system.cpu.decode.runCycles                    894480                       # Number of cycles decode is running (Cycle)
system.cpu.decode.unblockCycles                174097                       # Number of cycles decode is unblocking (Cycle)
system.cpu.decode.squashCycles                  20491                       # Number of cycles decode is squashing (Cycle)
system.cpu.decode.branchResolved               467364                       # Number of times decode resolved a branch (Count)
system.cpu.decode.branchMispred                   350                       # Number of times decode detected a branch misprediction (Count)
system.cpu.decode.decodedInsts                6456342                       # Number of instructions handled by decode (Count)
system.cpu.decode.squashedInsts                  1270                       # Number of squashed instructions handled by decode (Count)
system.cpu.fetch.icacheStallCycles             872090                       # Number of cycles fetch is stalled on an Icache miss (Cycle)
system.cpu.fetch.insts                        6307169                       # Number of instructions fetch has processed (Count)
system.cpu.fetch.branches                      938393                       # Number of branches that fetch encountered (Count)
system.cpu.fetch.predictedBranches             578850                       # Number of branches that fetch has predicted taken (Count)
system.cpu.fetch.cycles                       3952783                       # Number of cycles fetch has run and was not squashing or blocked (Cycle)
system.cpu.fetch.squashCycles                   41662                       # Number of cycles fetch has spent squashing (Cycle)
system.cpu.fetch.miscStallCycles                   65                       # Number of cycles fetch has spent waiting on interrupts, or bad addresses, or out of MSHRs (Cycle)
system.cpu.fetch.icacheWaitRetryStallCycles           72                       # Number of stall cycles due to full MSHR (Cycle)
system.cpu.fetch.cacheLines                    843232                       # Number of cache lines fetched (Count)
system.cpu.fetch.icacheSquashes                  7088                       # Number of outstanding Icache misses that were squashed (Count)
system.cpu.fetch.nisnDist::samples            4845841                       # Number of instructions fetched each cycle (Total) (Count)
system.cpu.fetch.nisnDist::mean              1.427119                       # Number of instructions fetched each cycle (Total) (Count)
system.cpu.fetch.nisnDist::stdev             2.676619                       # Number of instructions fetched each cycle (Total) (Count)
system.cpu.fetch.nisnDist::underflows               0      0.00%      0.00% # Number of instructions fetched each cycle (Total) (Count)
system.cpu.fetch.nisnDist::0                  3484038     71.90%     71.90% # Number of instructions fetched each cycle (Total) (Count)
system.cpu.fetch.nisnDist::1                   170902      3.53%     75.42% # Number of instructions fetched each cycle (Total) (Count)
system.cpu.fetch.nisnDist::2                   169623      3.50%     78.92% # Number of instructions fetched each cycle (Total) (Count)
system.cpu.fetch.nisnDist::3                   119460      2.47%     81.39% # Number of instructions fetched each cycle (Total) (Count)
system.cpu.fetch.nisnDist::4                   124861      2.58%     83.97% # Number of instructions fetched each cycle (Total) (Count)
system.cpu.fetch.nisnDist::5                   142002      2.93%     86.90% # Number of instructions fetched each cycle (Total) (Count)
system.cpu.fetch.nisnDist::6                    53679      1.11%     88.00% # Number of instructions fetched each cycle (Total) (Count)
system.cpu.fetch.nisnDist::7                   134674      2.78%     90.78% # Number of instructions fetched each cycle (Total) (Count)
system.cpu.fetch.nisnDist::8                   446602      9.22%    100.00% # Number of instructions fetched each cycle (Total) (Count)
system.cpu.fetch.nisnDist::overflows                0      0.00%    100.00% # Number of instructions fetched each cycle (Total) (Count)
system.cpu.fetch.nisnDist::min_value                0                       # Number of instructions fetched each cycle (Total) (Count)
system.cpu.fetch.nisnDist::max_value                8                       # Number of instructions fetched each cycle (Total) (Count)
system.cpu.fetch.nisnDist::total              4845841                       # Number of instructions fetched each cycle (Total) (Count)
system.cpu.fetch.branchRate                  0.192053                       # Number of branch fetches per cycle (Ratio)
system.cpu.fetch.rate                        1.290836                       # Number of inst fetches per cycle ((Count/Cycle))
system.cpu.icache.demandHits::cpu.inst         842321                       # number of demand (read+write) hits (Count)
system.cpu.icache.demandHits::total            842321                       # number of demand (read+write) hits (Count)
system.cpu.icache.overallHits::cpu.inst        842321                       # number of overall hits (Count)
system.cpu.icache.overallHits::total           842321                       # number of overall hits (Count)
system.cpu.icache.demandMisses::cpu.inst          910                       # number of demand (read+write) misses (Count)
system.cpu.icache.demandMisses::total             910                       # number of demand (read+write) misses (Count)
system.cpu.icache.overallMisses::cpu.inst          910                       # number of overall misses (Count)
system.cpu.icache.overallMisses::total            910                       # number of overall misses (Count)
system.cpu.icache.demandMissLatency::cpu.inst     55908997                       # number of demand (read+write) miss ticks (Tick)
system.cpu.icache.demandMissLatency::total     55908997                       # number of demand (read+write) miss ticks (Tick)
system.cpu.icache.overallMissLatency::cpu.inst     55908997                       # number of overall miss ticks (Tick)
system.cpu.icache.overallMissLatency::total     55908997                       # number of overall miss ticks (Tick)
system.cpu.icache.demandAccesses::cpu.inst       843231                       # number of demand (read+write) accesses (Count)
system.cpu.icache.demandAccesses::total        843231                       # number of demand (read+write) accesses (Count)
system.cpu.icache.overallAccesses::cpu.inst       843231                       # number of overall (read+write) accesses (Count)
system.cpu.icache.overallAccesses::total       843231                       # number of overall (read+write) accesses (Count)
system.cpu.icache.demandMissRate::cpu.inst     0.001079                       # miss rate for demand accesses (Ratio)
system.cpu.icache.demandMissRate::total      0.001079                       # miss rate for demand accesses (Ratio)
system.cpu.icache.overallMissRate::cpu.inst     0.001079                       # miss rate for overall accesses (Ratio)
system.cpu.icache.overallMissRate::total     0.001079                       # miss rate for overall accesses (Ratio)
system.cpu.icache.demandAvgMissLatency::cpu.inst 61438.458242                       # average overall miss latency ((Cycle/Count))
system.cpu.icache.demandAvgMissLatency::total 61438.458242                       # average overall miss latency ((Cycle/Count))
system.cpu.icache.overallAvgMissLatency::cpu.inst 61438.458242                       # average overall miss latency ((Cycle/Count))
system.cpu.icache.overallAvgMissLatency::total 61438.458242                       # average overall miss latency ((Cycle/Count))
system.cpu.icache.blockedCycles::no_mshrs          601                       # number of cycles access was blocked (Cycle)
system.cpu.icache.blockedCycles::no_targets            0                       # number of cycles access was blocked (Cycle)
system.cpu.icache.blockedCauses::no_mshrs           12                       # number of times access was blocked (Count)
system.cpu.icache.blockedCauses::no_targets            0                       # number of times access was blocked (Count)
system.cpu.icache.avgBlocked::no_mshrs      50.083333                       # average number of cycles each access was blocked ((Cycle/Count))
system.cpu.icache.avgBlocked::no_targets          nan                       # average number of cycles each access was blocked ((Cycle/Count))
system.cpu.icache.writebacks::writebacks          231                       # number of writebacks (Count)
system.cpu.icache.writebacks::total               231                       # number of writebacks (Count)
system.cpu.icache.demandMshrHits::cpu.inst          235                       # number of demand (read+write) MSHR hits (Count)
system.cpu.icache.demandMshrHits::total           235                       # number of demand (read+write) MSHR hits (Count)
system.cpu.icache.overallMshrHits::cpu.inst          235                       # number of overall MSHR hits (Count)
system.cpu.icache.overallMshrHits::total          235                       # number of overall MSHR hits (Count)
system.cpu.icache.demandMshrMisses::cpu.inst          675                       # number of demand (read+write) MSHR misses (Count)
system.cpu.icache.demandMshrMisses::total          675                       # number of demand (read+write) MSHR misses (Count)
system.cpu.icache.overallMshrMisses::cpu.inst          675                       # number of overall MSHR misses (Count)
system.cpu.icache.overallMshrMisses::total          675                       # number of overall MSHR misses (Count)
system.cpu.icache.demandMshrMissLatency::cpu.inst     44413998                       # number of demand (read+write) MSHR miss ticks (Tick)
system.cpu.icache.demandMshrMissLatency::total     44413998                       # number of demand (read+write) MSHR miss ticks (Tick)
system.cpu.icache.overallMshrMissLatency::cpu.inst     44413998                       # number of overall MSHR miss ticks (Tick)
system.cpu.icache.overallMshrMissLatency::total     44413998                       # number of overall MSHR miss ticks (Tick)
system.cpu.icache.demandMshrMissRate::cpu.inst     0.000800                       # mshr miss ratio for demand accesses (Ratio)
system.cpu.icache.demandMshrMissRate::total     0.000800                       # mshr miss ratio for demand accesses (Ratio)
system.cpu.icache.overallMshrMissRate::cpu.inst     0.000800                       # mshr miss ratio for overall accesses (Ratio)
system.cpu.icache.overallMshrMissRate::total     0.000800                       # mshr miss ratio for overall accesses (Ratio)
system.cpu.icache.demandAvgMshrMissLatency::cpu.inst 65798.515556                       # average overall mshr miss latency ((Cycle/Count))
system.cpu.icache.demandAvgMshrMissLatency::total 65798.515556                       # average overall mshr miss latency ((Cycle/Count))
system.cpu.icache.overallAvgMshrMissLatency::cpu.inst 65798.515556                       # average overall mshr miss latency ((Cycle/Count))
system.cpu.icache.overallAvgMshrMissLatency::total 65798.515556                       # average overall mshr miss latency ((Cycle/Count))
system.cpu.icache.replacements                    231                       # number of replacements (Count)
system.cpu.icache.ReadReq.hits::cpu.inst       842321                       # number of ReadReq hits (Count)
system.cpu.icache.ReadReq.hits::total          842321                       # number of ReadReq hits (Count)
system.cpu.icache.ReadReq.misses::cpu.inst          910                       # number of ReadReq misses (Count)
system.cpu.icache.ReadReq.misses::total           910                       # number of ReadReq misses (Count)
system.cpu.icache.ReadReq.missLatency::cpu.inst     55908997                       # number of ReadReq miss ticks (Tick)
system.cpu.icache.ReadReq.missLatency::total     55908997                       # number of ReadReq miss ticks (Tick)
system.cpu.icache.ReadReq.accesses::cpu.inst       843231                       # number of ReadReq accesses(hits+misses) (Count)
system.cpu.icache.ReadReq.accesses::total       843231                       # number of ReadReq accesses(hits+misses) (Count)
system.cpu.icache.ReadReq.missRate::cpu.inst     0.001079                       # miss rate for ReadReq accesses (Ratio)
system.cpu.icache.ReadReq.missRate::total     0.001079                       # miss rate for ReadReq accesses (Ratio)
system.cpu.icache.ReadReq.avgMissLatency::cpu.inst 61438.458242                       # average ReadReq miss latency ((Tick/Count))
system.cpu.icache.ReadReq.avgMissLatency::total 61438.458242                       # average ReadReq miss latency ((Tick/Count))
system.cpu.icache.ReadReq.mshrHits::cpu.inst          235                       # number of ReadReq MSHR hits (Count)
system.cpu.icache.ReadReq.mshrHits::total          235                       # number of ReadReq MSHR hits (Count)
system.cpu.icache.ReadReq.mshrMisses::cpu.inst          675                       # number of ReadReq MSHR misses (Count)
system.cpu.icache.ReadReq.mshrMisses::total          675                       # number of ReadReq MSHR misses (Count)
system.cpu.icache.ReadReq.mshrMissLatency::cpu.inst     44413998                       # number of ReadReq MSHR miss ticks (Tick)
system.cpu.icache.ReadReq.mshrMissLatency::total     44413998                       # number of ReadReq MSHR miss ticks (Tick)
system.cpu.icache.ReadReq.mshrMissRate::cpu.inst     0.000800                       # mshr miss rate for ReadReq accesses (Ratio)
system.cpu.icache.ReadReq.mshrMissRate::total     0.000800                       # mshr miss rate for ReadReq accesses (Ratio)
system.cpu.icache.ReadReq.avgMshrMissLatency::cpu.inst 65798.515556                       # average ReadReq mshr miss latency ((Tick/Count))
system.cpu.icache.ReadReq.avgMshrMissLatency::total 65798.515556                       # average ReadReq mshr miss latency ((Tick/Count))
system.cpu.icache.power_state.pwrStateResidencyTicks::UNDEFINED   2443056000                       # Cumulative time (in ticks) in various power states (Tick)
system.cpu.icache.tags.tagsInUse           384.041691                       # Average ticks per tags in use ((Tick/Count))
system.cpu.icache.tags.totalRefs               842995                       # Total number of references to valid blocks. (Count)
system.cpu.icache.tags.sampledRefs                674                       # Sample count of references to valid blocks. (Count)
system.cpu.icache.tags.avgRefs            1250.734421                       # Average number of references to valid blocks. ((Count/Count))
system.cpu.icache.tags.warmupTick               77000                       # The tick when the warmup percentage was hit. (Tick)
system.cpu.icache.tags.occupancies::cpu.inst   384.041691                       # Average occupied blocks per tick, per requestor ((Count/Tick))
system.cpu.icache.tags.avgOccs::cpu.inst     0.750081                       # Average percentage of cache occupancy ((Ratio/Tick))
system.cpu.icache.tags.avgOccs::total        0.750081                       # Average percentage of cache occupancy ((Ratio/Tick))
system.cpu.icache.tags.occupanciesTaskId::1024          443                       # Occupied blocks per task id (Count)
system.cpu.icache.tags.ageTaskId_1024::0          120                       # Occupied blocks per task id, per block age (Count)
system.cpu.icache.tags.ageTaskId_1024::1            9                       # Occupied blocks per task id, per block age (Count)
system.cpu.icache.tags.ageTaskId_1024::2            7                       # Occupied blocks per task id, per block age (Count)
system.cpu.icache.tags.ageTaskId_1024::3          307                       # Occupied blocks per task id, per block age (Count)
system.cpu.icache.tags.ratioOccsTaskId::1024     0.865234                       # Ratio of occupied blocks and all blocks, per task id (Ratio)
system.cpu.icache.tags.tagAccesses            1687136                       # Number of tag accesses (Count)
system.cpu.icache.tags.dataAccesses           1687136                       # Number of data accesses (Count)
system.cpu.icache.tags.power_state.pwrStateResidencyTicks::UNDEFINED   2443056000                       # Cumulative time (in ticks) in various power states (Tick)
[...]
system.mem_ctrls.dram.bwRead::cpu.inst       17656574                       # Total read bandwidth from this memory ((Byte/Second))
system.mem_ctrls.dram.bwRead::cpu.data     1797905574                       # Total read bandwidth from this memory ((Byte/Second))
system.mem_ctrls.dram.bwRead::total        1815562148                       # Total read bandwidth from this memory ((Byte/Second))
system.mem_ctrls.dram.bwInstRead::cpu.inst     17656574                       # Instruction read bandwidth from this memory ((Byte/Second))
system.mem_ctrls.dram.bwInstRead::total      17656574                       # Instruction read bandwidth from this memory ((Byte/Second))
system.mem_ctrls.dram.bwWrite::writebacks    902319063                       # Write bandwidth from this memory ((Byte/Second))
system.mem_ctrls.dram.bwWrite::total        902319063                       # Write bandwidth from this memory ((Byte/Second))
system.mem_ctrls.dram.bwTotal::writebacks    902319063                       # Total bandwidth to/from this memory ((Byte/Second))
system.mem_ctrls.dram.bwTotal::cpu.inst      17656574                       # Total bandwidth to/from this memory ((Byte/Second))
system.mem_ctrls.dram.bwTotal::cpu.data    1797905574                       # Total bandwidth to/from this memory ((Byte/Second))
system.mem_ctrls.dram.bwTotal::total       2717881211                       # Total bandwidth to/from this memory ((Byte/Second))
system.mem_ctrls.dram.readBursts                39422                       # Number of DRAM read bursts (Count)
system.mem_ctrls.dram.writeBursts                4754                       # Number of DRAM write bursts (Count)
system.mem_ctrls.dram.perBankRdBursts::0         8754                       # Per bank write bursts (Count)
system.mem_ctrls.dram.perBankRdBursts::1         1256                       # Per bank write bursts (Count)
system.mem_ctrls.dram.perBankRdBursts::2         7046                       # Per bank write bursts (Count)
system.mem_ctrls.dram.perBankRdBursts::3         5516                       # Per bank write bursts (Count)
system.mem_ctrls.dram.perBankRdBursts::4         2177                       # Per bank write bursts (Count)
system.mem_ctrls.dram.perBankRdBursts::5         2012                       # Per bank write bursts (Count)
system.mem_ctrls.dram.perBankRdBursts::6          392                       # Per bank write bursts (Count)
system.mem_ctrls.dram.perBankRdBursts::7         4630                       # Per bank write bursts (Count)
system.mem_ctrls.dram.perBankRdBursts::8          326                       # Per bank write bursts (Count)
system.mem_ctrls.dram.perBankRdBursts::9           98                       # Per bank write bursts (Count)
system.mem_ctrls.dram.perBankRdBursts::10         4126                       # Per bank write bursts (Count)
system.mem_ctrls.dram.perBankRdBursts::11           39                       # Per bank write bursts (Count)
system.mem_ctrls.dram.perBankRdBursts::12          573                       # Per bank write bursts (Count)
system.mem_ctrls.dram.perBankRdBursts::13           44                       # Per bank write bursts (Count)
system.mem_ctrls.dram.perBankRdBursts::14         2334                       # Per bank write bursts (Count)
system.mem_ctrls.dram.perBankRdBursts::15           99                       # Per bank write bursts (Count)
system.mem_ctrls.dram.perBankWrBursts::0           20                       # Per bank write bursts (Count)
system.mem_ctrls.dram.perBankWrBursts::1          115                       # Per bank write bursts (Count)
system.mem_ctrls.dram.perBankWrBursts::2          846                       # Per bank write bursts (Count)
system.mem_ctrls.dram.perBankWrBursts::3          730                       # Per bank write bursts (Count)
system.mem_ctrls.dram.perBankWrBursts::4         1072                       # Per bank write bursts (Count)
system.mem_ctrls.dram.perBankWrBursts::5          949                       # Per bank write bursts (Count)
system.mem_ctrls.dram.perBankWrBursts::6          346                       # Per bank write bursts (Count)
system.mem_ctrls.dram.perBankWrBursts::7          258                       # Per bank write bursts (Count)
system.mem_ctrls.dram.perBankWrBursts::8          286                       # Per bank write bursts (Count)
system.mem_ctrls.dram.perBankWrBursts::9           68                       # Per bank write bursts (Count)
system.mem_ctrls.dram.perBankWrBursts::10            0                       # Per bank write bursts (Count)
system.mem_ctrls.dram.perBankWrBursts::11           17                       # Per bank write bursts (Count)
system.mem_ctrls.dram.perBankWrBursts::12            0                       # Per bank write bursts (Count)
system.mem_ctrls.dram.perBankWrBursts::13            1                       # Per bank write bursts (Count)
system.mem_ctrls.dram.perBankWrBursts::14           16                       # Per bank write bursts (Count)
system.mem_ctrls.dram.perBankWrBursts::15           30                       # Per bank write bursts (Count)
system.mem_ctrls.dram.totQLat               243680000                       # Total ticks spent queuing (Tick)
system.mem_ctrls.dram.totBusLat             197110000                       # Total ticks spent in databus transfers (Tick)
system.mem_ctrls.dram.totMemAccLat          982842500                       # Total ticks spent from burst creation until serviced by the DRAM (Tick)
system.mem_ctrls.dram.avgQLat                 6181.32                       # Average queueing delay per DRAM burst ((Tick/Count))
system.mem_ctrls.dram.avgBusLat               5000.00                       # Average bus latency per DRAM burst ((Tick/Count))
system.mem_ctrls.dram.avgMemAccLat           24931.32                       # Average memory access latency per DRAM burst ((Tick/Count))
system.mem_ctrls.dram.readRowHits               35376                       # Number of row buffer hits during reads (Count)
system.mem_ctrls.dram.writeRowHits               4430                       # Number of row buffer hits during writes (Count)
system.mem_ctrls.dram.readRowHitRate            89.74                       # Row buffer hit rate for reads (Ratio)
system.mem_ctrls.dram.writeRowHitRate           93.18                       # Row buffer hit rate for writes (Ratio)
system.mem_ctrls.dram.bytesPerActivate::samples         4355                       # Bytes accessed per row activation (Byte)
system.mem_ctrls.dram.bytesPerActivate::mean   648.361883                       # Bytes accessed per row activation (Byte)
system.mem_ctrls.dram.bytesPerActivate::gmean   478.320816                       # Bytes accessed per row activation (Byte)
system.mem_ctrls.dram.bytesPerActivate::stdev   365.713294                       # Bytes accessed per row activation (Byte)
system.mem_ctrls.dram.bytesPerActivate::0-127          495     11.37%     11.37% # Bytes accessed per row activation (Byte)
system.mem_ctrls.dram.bytesPerActivate::128-255          480     11.02%     22.39% # Bytes accessed per row activation (Byte)
system.mem_ctrls.dram.bytesPerActivate::256-383          291      6.68%     29.07% # Bytes accessed per row activation (Byte)
system.mem_ctrls.dram.bytesPerActivate::384-511          282      6.48%     35.55% # Bytes accessed per row activation (Byte)
system.mem_ctrls.dram.bytesPerActivate::512-639          274      6.29%     41.84% # Bytes accessed per row activation (Byte)
system.mem_ctrls.dram.bytesPerActivate::640-767          286      6.57%     48.40% # Bytes accessed per row activation (Byte)
system.mem_ctrls.dram.bytesPerActivate::768-895          449     10.31%     58.71% # Bytes accessed per row activation (Byte)
system.mem_ctrls.dram.bytesPerActivate::896-1023          299      6.87%     65.58% # Bytes accessed per row activation (Byte)
system.mem_ctrls.dram.bytesPerActivate::1024-1151         1499     34.42%    100.00% # Bytes accessed per row activation (Byte)
system.mem_ctrls.dram.bytesPerActivate::total         4355                       # Bytes accessed per row activation (Byte)
system.mem_ctrls.dram.bytesRead               2523008                       # Total bytes read (Byte)
system.mem_ctrls.dram.bytesWritten             304256                       # Total bytes written (Byte)
system.mem_ctrls.dram.avgRdBW             1032.726225                       # Average DRAM read bandwidth in MiBytes/s ((Byte/Second))
system.mem_ctrls.dram.avgWrBW              124.539102                       # Average DRAM write bandwidth in MiBytes/s ((Byte/Second))
system.mem_ctrls.dram.peakBW                 12800.00                       # Theoretical peak bandwidth in MiByte/s ((Byte/Second))
system.mem_ctrls.dram.busUtil                    9.04                       # Data bus utilization in percentage (Ratio)
system.mem_ctrls.dram.busUtilRead                8.07                       # Data bus utilization in percentage for reads (Ratio)
system.mem_ctrls.dram.busUtilWrite               0.97                       # Data bus utilization in percentage for writes (Ratio)
system.mem_ctrls.dram.pageHitRate               90.11                       # Row buffer hit rate, read and write combined (Ratio)
system.mem_ctrls.dram.power_state.pwrStateResidencyTicks::UNDEFINED   2443056000                       # Cumulative time (in ticks) in various power states (Tick)
system.mem_ctrls.dram.rank0.actEnergy        25796820                       # Energy for activate commands per rank (pJ) (Joule)
system.mem_ctrls.dram.rank0.preEnergy        13684770                       # Energy for precharge commands per rank (pJ) (Joule)
system.mem_ctrls.dram.rank0.readEnergy      226930620                       # Energy for read commands per rank (pJ) (Joule)
system.mem_ctrls.dram.rank0.writeEnergy      22633920                       # Energy for write commands per rank (pJ) (Joule)
system.mem_ctrls.dram.rank0.refreshEnergy 192382320.000000                       # Energy for refresh commands per rank (pJ) (Joule)
system.mem_ctrls.dram.rank0.actBackEnergy   1105642110                       # Energy for active background per rank (pJ) (Joule)
system.mem_ctrls.dram.rank0.preBackEnergy      7066560                       # Energy for precharge background per rank (pJ) (Joule)
system.mem_ctrls.dram.rank0.actPowerDownEnergy            0                       # Energy for active power-down per rank (pJ) (Joule)
system.mem_ctrls.dram.rank0.prePowerDownEnergy            0                       # Energy for precharge power-down per rank (pJ) (Joule)
system.mem_ctrls.dram.rank0.selfRefreshEnergy            0                       # Energy for self refresh per rank (pJ) (Joule)
system.mem_ctrls.dram.rank0.totalEnergy    1594137120                       # Total energy per rank (pJ) (Joule)
system.mem_ctrls.dram.rank0.averagePower   652.517634                       # Core power per rank (mW) (Watt)
system.mem_ctrls.dram.rank0.totalIdleTime            0                       # Total Idle time Per DRAM Rank (Tick)
system.mem_ctrls.dram.rank0.pwrStateTime::IDLE      9616000                       # Time in different power states (Tick)
system.mem_ctrls.dram.rank0.pwrStateTime::REF     81380000                       # Time in different power states (Tick)
system.mem_ctrls.dram.rank0.pwrStateTime::SREF            0                       # Time in different power states (Tick)
system.mem_ctrls.dram.rank0.pwrStateTime::PRE_PDN            0                       # Time in different power states (Tick)
system.mem_ctrls.dram.rank0.pwrStateTime::ACT   2352060000                       # Time in different power states (Tick)
system.mem_ctrls.dram.rank0.pwrStateTime::ACT_PDN            0                       # Time in different power states (Tick)
system.mem_ctrls.dram.rank1.actEnergy         5404980                       # Energy for activate commands per rank (pJ) (Joule)
system.mem_ctrls.dram.rank1.preEnergy         2842455                       # Energy for precharge commands per rank (pJ) (Joule)
system.mem_ctrls.dram.rank1.readEnergy       54542460                       # Energy for read commands per rank (pJ) (Joule)
system.mem_ctrls.dram.rank1.writeEnergy       2181960                       # Energy for write commands per rank (pJ) (Joule)
system.mem_ctrls.dram.rank1.refreshEnergy 192382320.000000                       # Energy for refresh commands per rank (pJ) (Joule)
system.mem_ctrls.dram.rank1.actBackEnergy    804336690                       # Energy for active background per rank (pJ) (Joule)
system.mem_ctrls.dram.rank1.preBackEnergy    260797440                       # Energy for precharge background per rank (pJ) (Joule)
system.mem_ctrls.dram.rank1.actPowerDownEnergy            0                       # Energy for active power-down per rank (pJ) (Joule)
system.mem_ctrls.dram.rank1.prePowerDownEnergy            0                       # Energy for precharge power-down per rank (pJ) (Joule)
system.mem_ctrls.dram.rank1.selfRefreshEnergy            0                       # Energy for self refresh per rank (pJ) (Joule)
system.mem_ctrls.dram.rank1.totalEnergy    1322488305                       # Total energy per rank (pJ) (Joule)
system.mem_ctrls.dram.rank1.averagePower   541.325416                       # Core power per rank (mW) (Watt)
system.mem_ctrls.dram.rank1.totalIdleTime            0                       # Total Idle time Per DRAM Rank (Tick)
system.mem_ctrls.dram.rank1.pwrStateTime::IDLE    670883000                       # Time in different power states (Tick)
system.mem_ctrls.dram.rank1.pwrStateTime::REF     81380000                       # Time in different power states (Tick)
system.mem_ctrls.dram.rank1.pwrStateTime::SREF            0                       # Time in different power states (Tick)
system.mem_ctrls.dram.rank1.pwrStateTime::PRE_PDN            0                       # Time in different power states (Tick)
system.mem_ctrls.dram.rank1.pwrStateTime::ACT   1690793000                       # Time in different power states (Tick)
system.mem_ctrls.dram.rank1.pwrStateTime::ACT_PDN            0                       # Time in different power states (Tick)
system.mem_ctrls.power_state.pwrStateResidencyTicks::UNDEFINED   2443056000                       # Cumulative time (in ticks) in various power states (Tick)
system.membus.transDist::ReadResp               47109                       # Transaction distribution (Count)
system.membus.transDist::WritebackDirty         34444                       # Transaction distribution (Count)
system.membus.transDist::WritebackClean           231                       # Transaction distribution (Count)
system.membus.transDist::CleanEvict             37746                       # Transaction distribution (Count)
system.membus.transDist::ReadExReq              22196                       # Transaction distribution (Count)
system.membus.transDist::ReadExResp             22196                       # Transaction distribution (Count)
system.membus.transDist::ReadCleanReq             675                       # Transaction distribution (Count)
system.membus.transDist::ReadSharedReq          46435                       # Transaction distribution (Count)
system.membus.transDist::InvalidateReq           3591                       # Transaction distribution (Count)
system.membus.pktCount_system.cpu.icache.mem_side_port::system.mem_ctrls.port         1580                       # Packet count per connected requestor and responder (Count)
system.membus.pktCount_system.cpu.dcache.mem_side_port::system.mem_ctrls.port       213043                       # Packet count per connected requestor and responder (Count)
system.membus.pktCount::total                  214623                       # Packet count per connected requestor and responder (Count)
system.membus.pktSize_system.cpu.icache.mem_side_port::system.mem_ctrls.port        57920                       # Cumulative packet size per connected requestor and responder (Byte)
system.membus.pktSize_system.cpu.dcache.mem_side_port::system.mem_ctrls.port      6596800                       # Cumulative packet size per connected requestor and responder (Byte)
system.membus.pktSize::total                  6654720                       # Cumulative packet size per connected requestor and responder (Byte)
system.membus.snoops                                0                       # Total snoops (Count)
system.membus.snoopTraffic                          0                       # Total snoop traffic (Byte)
system.membus.snoopFanout::samples              72897                       # Request fanout histogram (Count)
system.membus.snoopFanout::mean              0.000041                       # Request fanout histogram (Count)
system.membus.snoopFanout::stdev             0.006415                       # Request fanout histogram (Count)
system.membus.snoopFanout::underflows               0      0.00%      0.00% # Request fanout histogram (Count)
system.membus.snoopFanout::0                    72894    100.00%    100.00% # Request fanout histogram (Count)
system.membus.snoopFanout::1                        3      0.00%    100.00% # Request fanout histogram (Count)
system.membus.snoopFanout::2                        0      0.00%    100.00% # Request fanout histogram (Count)
system.membus.snoopFanout::overflows                0      0.00%    100.00% # Request fanout histogram (Count)
system.membus.snoopFanout::min_value                0                       # Request fanout histogram (Count)
system.membus.snoopFanout::max_value                1                       # Request fanout histogram (Count)
system.membus.snoopFanout::total                72897                       # Request fanout histogram (Count)
system.membus.power_state.pwrStateResidencyTicks::UNDEFINED   2443056000                       # Cumulative time (in ticks) in various power states (Tick)
system.membus.reqLayer0.occupancy           297744500                       # Layer occupancy (ticks) (Tick)
system.membus.reqLayer0.utilization               0.1                       # Layer utilization (Ratio)
system.membus.respLayer1.occupancy            3590750                       # Layer occupancy (ticks) (Tick)
system.membus.respLayer1.utilization              0.0                       # Layer utilization (Ratio)
system.membus.respLayer2.occupancy          353138250                       # Layer occupancy (ticks) (Tick)
system.membus.respLayer2.utilization              0.1                       # Layer utilization (Ratio)
system.membus.snoop_filter.totRequests         145318                       # Total number of requests made to the snoop filter. (Count)
system.membus.snoop_filter.hitSingleRequests        72421                       # Number of requests hitting in the snoop filter with a single holder of the requested data. (Count)
system.membus.snoop_filter.hitMultiRequests            3                       # Number of requests hitting in the snoop filter with multiple (>1) holders of the requested data. (Count)
system.membus.snoop_filter.totSnoops                0                       # Total number of snoops made to the snoop filter. (Count)
system.membus.snoop_filter.hitSingleSnoops            0                       # Number of snoops hitting in the snoop filter with a single holder of the requested data. (Count)
system.membus.snoop_filter.hitMultiSnoops            0                       # Number of snoops hitting in the snoop filter with multiple (>1) holders of the requested data. (Count)
system.voltage_domain.voltage                       1                       # Voltage in Volts (Volt)
system.workload.inst.arm                            0                       # number of arm instructions executed (Count)
system.workload.inst.quiesce                        0                       # number of quiesce instructions executed (Count)

---------- End Simulation Statistics   ----------
