
---------- Begin Simulation Statistics ----------
simSeconds                                   0.001396                       # Number of seconds simulated (Second)
simTicks                                   1395877500                       # Number of ticks simulated (Tick)
finalTick                                  1395877500                       # Number of ticks from beginning of simulation (restored from checkpoints and never reset) (Tick)
simFreq                                  1000000000000                       # The number of ticks per simulated second ((Tick/Second))
hostSeconds                                      9.03                       # Real time elapsed on the host (Second)
hostTickRate                                154554726                       # The number of ticks simulated per host second (ticks/s) ((Tick/Second))
hostMemory                                     670924                       # Number of bytes of host memory used (Byte)
simInsts                                      4846742                       # Number of instructions simulated (Count)
simOps                                        5375320                       # Number of ops (including micro ops) simulated (Count)
hostInstRate                                   536640                       # Simulator instruction rate (inst/s) ((Count/Second))
hostOpRate                                     595164                       # Simulator op (including micro ops) rate (op/s) ((Count/Second))
system.clk_domain.clock                          1000                       # Clock period in ticks (Tick)
system.cpu.numCycles                          2791756                       # Number of cpu cycles simulated (Cycle)
system.cpu.numWorkItemsStarted                      0                       # Number of work items this cpu started (Count)
system.cpu.numWorkItemsCompleted                    0                       # Number of work items this cpu completed (Count)
system.cpu.instsAdded                         6286703                       # Number of instructions added to the IQ (excludes non-spec) (Count)
system.cpu.nonSpecInstsAdded                     2147                       # Number of non-speculative instructions added to the IQ (Count)
system.cpu.instsIssued                        5941667                       # Number of instructions issued (Count)
system.cpu.squashedInstsIssued                   5794                       # Number of squashed instructions issued (Count)
system.cpu.squashedInstsExamined               913529                       # Number of squashed instructions iterated over during squash; mainly for profiling (Count)
system.cpu.squashedOperandsExamined            645231                       # Number of squashed operands that are examined and possibly removed from graph (Count)
system.cpu.squashedNonSpecRemoved                  40                       # Number of squashed non-spec instructions that were removed (Count)
system.cpu.numIssuedDist::samples             2751151                       # Number of insts issued each cycle (Count)
system.cpu.numIssuedDist::mean               2.159702                       # Number of insts issued each cycle (Count)
system.cpu.numIssuedDist::stdev              2.158270                       # Number of insts issued each cycle (Count)
system.cpu.numIssuedDist::underflows                0      0.00%      0.00% # Number of insts issued each cycle (Count)
system.cpu.numIssuedDist::0                    927686     33.72%     33.72% # Number of insts issued each cycle (Count)
system.cpu.numIssuedDist::1                    353928     12.86%     46.58% # Number of insts issued each cycle (Count)
system.cpu.numIssuedDist::2                    402120     14.62%     61.20% # Number of insts issued each cycle (Count)
system.cpu.numIssuedDist::3                    323860     11.77%     72.97% # Number of insts issued each cycle (Count)
system.cpu.numIssuedDist::4                    322435     11.72%     84.69% # Number of insts issued each cycle (Count)
system.cpu.numIssuedDist::5                    186088      6.76%     91.46% # Number of insts issued each cycle (Count)
system.cpu.numIssuedDist::6                    122476      4.45%     95.91% # Number of insts issued each cycle (Count)
system.cpu.numIssuedDist::7                     43581      1.58%     97.49% # Number of insts issued each cycle (Count)
system.cpu.numIssuedDist::8                     68977      2.51%    100.00% # Number of insts issued each cycle (Count)
system.cpu.numIssuedDist::overflows                 0      0.00%    100.00% # Number of insts issued each cycle (Count)
system.cpu.numIssuedDist::min_value                 0                       # Number of insts issued each cycle (Count)
system.cpu.numIssuedDist::max_value                 8                       # Number of insts issued each cycle (Count)
system.cpu.numIssuedDist::total               2751151                       # Number of insts issued each cycle (Count)
system.cpu.statFuBusy::No_OpClass                   0      0.00%      0.00% # attempts to use FU when none available (Count)
system.cpu.statFuBusy::IntAlu                   16572     10.86%     10.86% # attempts to use FU when none available (Count)
system.cpu.statFuBusy::IntMult                      0      0.00%     10.86% # attempts to use FU when none available (Count)
system.cpu.statFuBusy::IntDiv                       0      0.00%     10.86% # attempts to use FU when none available (Count)
system.cpu.statFuBusy::FloatAdd                     0      0.00%     10.86% # attempts to use FU when none available (Count)
system.cpu.statFuBusy::FloatCmp                     0      0.00%     10.86% # attempts to use FU when none available (Count)
system.cpu.statFuBusy::FloatCvt                     0      0.00%     10.86% # attempts to use FU when none available (Count)
system.cpu.statFuBusy::FloatMult                    0      0.00%     10.86% # attempts to use FU when none available (Count)
system.cpu.statFuBusy::FloatMultAcc                 0      0.00%     10.86% # attempts to use FU when none available (Count)
system.cpu.statFuBusy::FloatDiv                     0      0.00%     10.86% # attempts to use FU when none available (Count)
system.cpu.statFuBusy::FloatMisc                    0      0.00%     10.86% # attempts to use FU when none available (Count)
system.cpu.statFuBusy::FloatSqrt                    0      0.00%     10.86% # attempts to use FU when none available (Count)
system.cpu.statFuBusy::SimdAdd                      0      0.00%     10.86% # attempts to use FU when none available (Count)
system.cpu.statFuBusy::SimdAddAcc                   0      0.00%     10.86% # attempts to use FU when none available (Count)
system.cpu.statFuBusy::SimdAlu                    217      0.14%     11.00% # attempts to use FU when none available (Count)
system.cpu.statFuBusy::SimdCmp                    849      0.56%     11.56% # attempts to use FU when none available (Count)
system.cpu.statFuBusy::SimdCvt                      0      0.00%     11.56% # attempts to use FU when none available (Count)
system.cpu.statFuBusy::SimdMisc                     0      0.00%     11.56% # attempts to use FU when none available (Count)
system.cpu.statFuBusy::SimdMult                     0      0.00%     11.56% # attempts to use FU when none available (Count)
system.cpu.statFuBusy::SimdMultAcc                  0      0.00%     11.56% # attempts to use FU when none available (Count)
system.cpu.statFuBusy::SimdShift                    0      0.00%     11.56% # attempts to use FU when none available (Count)
system.cpu.statFuBusy::SimdShiftAcc                 0      0.00%     11.56% # attempts to use FU when none available (Count)
system.cpu.statFuBusy::SimdDiv                      0      0.00%     11.56% # attempts to use FU when none available (Count)
system.cpu.statFuBusy::SimdSqrt                     0      0.00%     11.56% # attempts to use FU when none available (Count)
system.cpu.statFuBusy::SimdFloatAdd                 0      0.00%     11.56% # attempts to use FU when none available (Count)
system.cpu.statFuBusy::SimdFloatAlu                 0      0.00%     11.56% # attempts to use FU when none available (Count)
system.cpu.statFuBusy::SimdFloatCmp                 0      0.00%     11.56% # attempts to use FU when none available (Count)
system.cpu.statFuBusy::SimdFloatCvt                 0      0.00%     11.56% # attempts to use FU when none available (Count)
system.cpu.statFuBusy::SimdFloatDiv                 0      0.00%     11.56% # attempts to use FU when none available (Count)
system.cpu.statFuBusy::SimdFloatMisc                0      0.00%     11.56% # attempts to use FU when none available (Count)
system.cpu.statFuBusy::SimdFloatMult                0      0.00%     11.56% # attempts to use FU when none available (Count)
system.cpu.statFuBusy::SimdFloatMultAcc             0      0.00%     11.56% # attempts to use FU when none available (Count)
system.cpu.statFuBusy::SimdFloatSqrt                0      0.00%     11.56% # attempts to use FU when none available (Count)
system.cpu.statFuBusy::SimdReduceAdd                0      0.00%     11.56% # attempts to use FU when none available (Count)
system.cpu.statFuBusy::SimdReduceAlu                0      0.00%     11.56% # attempts to use FU when none available (Count)
system.cpu.statFuBusy::SimdReduceCmp                0      0.00%     11.56% # attempts to use FU when none available (Count)
system.cpu.statFuBusy::SimdFloatReduceAdd            0      0.00%     11.56% # attempts to use FU when none available (Count)
system.cpu.statFuBusy::SimdFloatReduceCmp            0      0.00%     11.56% # attempts to use FU when none available (Count)
system.cpu.statFuBusy::SimdAes                      0      0.00%     11.56% # attempts to use FU when none available (Count)
system.cpu.statFuBusy::SimdAesMix                   0      0.00%     11.56% # attempts to use FU when none available (Count)
system.cpu.statFuBusy::SimdSha1Hash                 0      0.00%     11.56% # attempts to use FU when none available (Count)
system.cpu.statFuBusy::SimdSha1Hash2                0      0.00%     11.56% # attempts to use FU when none available (Count)
system.cpu.statFuBusy::SimdSha256Hash               0      0.00%     11.56% # attempts to use FU when none available (Count)
system.cpu.statFuBusy::SimdSha256Hash2              0      0.00%     11.56% # attempts to use FU when none available (Count)
system.cpu.statFuBusy::SimdShaSigma2                0      0.00%     11.56% # attempts to use FU when none available (Count)
system.cpu.statFuBusy::SimdShaSigma3                0      0.00%     11.56% # attempts to use FU when none available (Count)
system.cpu.statFuBusy::SimdPredAlu                  0      0.00%     11.56% # attempts to use FU when none available (Count)
system.cpu.statFuBusy::MemRead                  86697     56.83%     68.39% # attempts to use FU when none available (Count)
system.cpu.statFuBusy::MemWrite                 48224     31.61%    100.00% # attempts to use FU when none available (Count)
system.cpu.statFuBusy::FloatMemRead                 0      0.00%    100.00% # attempts to use FU when none available (Count)
system.cpu.statFuBusy::FloatMemWrite                0      0.00%    100.00% # attempts to use FU when none available (Count)
system.cpu.statFuBusy::IprAccess                    0      0.00%    100.00% # attempts to use FU when none available (Count)
system.cpu.statFuBusy::InstPrefetch                 0      0.00%    100.00% # attempts to use FU when none available (Count)
system.cpu.statIssuedInstType_0::No_OpClass         9507      0.16%      0.16% # Number of instructions issued per FU type, per thread (Count)
system.cpu.statIssuedInstType_0::IntAlu       3531808     59.44%     59.60% # Number of instructions issued per FU type, per thread (Count)
system.cpu.statIssuedInstType_0::IntMult        58808      0.99%     60.59% # Number of instructions issued per FU type, per thread (Count)
system.cpu.statIssuedInstType_0::IntDiv             3      0.00%     60.59% # Number of instructions issued per FU type, per thread (Count)
system.cpu.statIssuedInstType_0::FloatAdd            0      0.00%     60.59% # Number of instructions issued per FU type, per thread (Count)
system.cpu.statIssuedInstType_0::FloatCmp            0      0.00%     60.59% # Number of instructions issued per FU type, per thread (Count)
system.cpu.statIssuedInstType_0::FloatCvt            0      0.00%     60.59% # Number of instructions issued per FU type, per thread (Count)
system.cpu.statIssuedInstType_0::FloatMult            0      0.00%     60.59% # Number of instructions issued per FU type, per thread (Count)
system.cpu.statIssuedInstType_0::FloatMultAcc            0      0.00%     60.59% # Number of instructions issued per FU type, per thread (Count)
system.cpu.statIssuedInstType_0::FloatDiv            0      0.00%     60.59% # Number of instructions issued per FU type, per thread (Count)
system.cpu.statIssuedInstType_0::FloatMisc            0      0.00%     60.59% # Number of instructions issued per FU type, per thread (Count)
system.cpu.statIssuedInstType_0::FloatSqrt            0      0.00%     60.59% # Number of instructions issued per FU type, per thread (Count)
system.cpu.statIssuedInstType_0::SimdAdd        20399      0.34%     60.93% # Number of instructions issued per FU type, per thread (Count)
system.cpu.statIssuedInstType_0::SimdAddAcc            0      0.00%     60.93% # Number of instructions issued per FU type, per thread (Count)
system.cpu.statIssuedInstType_0::SimdAlu        39392      0.66%     61.60% # Number of instructions issued per FU type, per thread (Count)
system.cpu.statIssuedInstType_0::SimdCmp        37956      0.64%     62.24% # Number of instructions issued per FU type, per thread (Count)
system.cpu.statIssuedInstType_0::SimdCvt            0      0.00%     62.24% # Number of instructions issued per FU type, per thread (Count)
system.cpu.statIssuedInstType_0::SimdMisc        27330      0.46%     62.70% # Number of instructions issued per FU type, per thread (Count)
system.cpu.statIssuedInstType_0::SimdMult            0      0.00%     62.70% # Number of instructions issued per FU type, per thread (Count)
system.cpu.statIssuedInstType_0::SimdMultAcc            0      0.00%     62.70% # Number of instructions issued per FU type, per thread (Count)
system.cpu.statIssuedInstType_0::SimdShift            0      0.00%     62.70% # Number of instructions issued per FU type, per thread (Count)
system.cpu.statIssuedInstType_0::SimdShiftAcc            0      0.00%     62.70% # Number of instructions issued per FU type, per thread (Count)
system.cpu.statIssuedInstType_0::SimdDiv            0      0.00%     62.70% # Number of instructions issued per FU type, per thread (Count)
system.cpu.statIssuedInstType_0::SimdSqrt            0      0.00%     62.70% # Number of instructions issued per FU type, per thread (Count)
system.cpu.statIssuedInstType_0::SimdFloatAdd            0      0.00%     62.70% # Number of instructions issued per FU type, per thread (Count)
system.cpu.statIssuedInstType_0::SimdFloatAlu            0      0.00%     62.70% # Number of instructions issued per FU type, per thread (Count)
system.cpu.statIssuedInstType_0::SimdFloatCmp            0      0.00%     62.70% # Number of instructions issued per FU type, per thread (Count)
system.cpu.statIssuedInstType_0::SimdFloatCvt            0      0.00%     62.70% # Number of instructions issued per FU type, per thread (Count)
system.cpu.statIssuedInstType_0::SimdFloatDiv            0      0.00%     62.70% # Number of instructions issued per FU type, per thread (Count)
system.cpu.statIssuedInstType_0::SimdFloatMisc            0      0.00%     62.70% # Number of instructions issued per FU type, per thread (Count)
system.cpu.statIssuedInstType_0::SimdFloatMult            0      0.00%     62.70% # Number of instructions issued per FU type, per thread (Count)
system.cpu.statIssuedInstType_0::SimdFloatMultAcc            0      0.00%     62.70% # Number of instructions issued per FU type, per thread (Count)
system.cpu.statIssuedInstType_0::SimdFloatSqrt            0      0.00%     62.70% # Number of instructions issued per FU type, per thread (Count)
system.cpu.statIssuedInstType_0::SimdReduceAdd            0      0.00%     62.70% # Number of instructions issued per FU type, per thread (Count)
system.cpu.statIssuedInstType_0::SimdReduceAlu            0      0.00%     62.70% # Number of instructions issued per FU type, per thread (Count)
system.cpu.statIssuedInstType_0::SimdReduceCmp            0      0.00%     62.70% # Number of instructions issued per FU type, per thread (Count)
system.cpu.statIssuedInstType_0::SimdFloatReduceAdd            0      0.00%     62.70% # Number of instructions issued per FU type, per thread (Count)
system.cpu.statIssuedInstType_0::SimdFloatReduceCmp            0      0.00%     62.70% # Number of instructions issued per FU type, per thread (Count)
system.cpu.statIssuedInstType_0::SimdAes            0      0.00%     62.70% # Number of instructions issued per FU type, per thread (Count)
system.cpu.statIssuedInstType_0::SimdAesMix            0      0.00%     62.70% # Number of instructions issued per FU type, per thread (Count)
system.cpu.statIssuedInstType_0::SimdSha1Hash            0      0.00%     62.70% # Number of instructions issued per FU type, per thread (Count)
system.cpu.statIssuedInstType_0::SimdSha1Hash2            0      0.00%     62.70% # Number of instructions issued per FU type, per thread (Count)
system.cpu.statIssuedInstType_0::SimdSha256Hash            0      0.00%     62.70% # Number of instructions issued per FU type, per thread (Count)
system.cpu.statIssuedInstType_0::SimdSha256Hash2            0      0.00%     62.70% # Number of instructions issued per FU type, per thread (Count)
system.cpu.statIssuedInstType_0::SimdShaSigma2            0      0.00%     62.70% # Number of instructions issued per FU type, per thread (Count)
system.cpu.statIssuedInstType_0::SimdShaSigma3            0      0.00%     62.70% # Number of instructions issued per FU type, per thread (Count)
system.cpu.statIssuedInstType_0::SimdPredAlu            0      0.00%     62.70% # Number of instructions issued per FU type, per thread (Count)
system.cpu.statIssuedInstType_0::MemRead      1366475     23.00%     85.69% # Number of instructions issued per FU type, per thread (Count)
system.cpu.statIssuedInstType_0::MemWrite       849989     14.31%    100.00% # Number of instructions issued per FU type, per thread (Count)
system.cpu.statIssuedInstType_0::FloatMemRead            0      0.00%    100.00% # Number of instructions issued per FU type, per thread (Count)
system.cpu.statIssuedInstType_0::FloatMemWrite            0      0.00%    100.00% # Number of instructions issued per FU type, per thread (Count)
system.cpu.statIssuedInstType_0::IprAccess            0      0.00%    100.00% # Number of instructions issued per FU type, per thread (Count)
system.cpu.statIssuedInstType_0::InstPrefetch            0      0.00%    100.00% # Number of instructions issued per FU type, per thread (Count)
system.cpu.statIssuedInstType_0::total        5941667                       # Number of instructions issued per FU type, per thread (Count)
system.cpu.issueRate                         2.128290                       # Inst issue rate ((Count/Cycle))
system.cpu.fuBusy                              152559                       # FU busy when requested (Count)
system.cpu.fuBusyRate                        0.025676                       # FU busy rate (busy events/executed inst) ((Count/Count))
system.cpu.intInstQueueReads                 14408080                       # Number of integer instruction queue reads (Count)
system.cpu.intInstQueueWrites                 7005409                       # Number of integer instruction queue writes (Count)
system.cpu.intInstQueueWakeupAccesses         5689289                       # Number of integer instruction queue wakeup accesses (Count)
system.cpu.fpInstQueueReads                         0                       # Number of floating instruction queue reads (Count)
system.cpu.fpInstQueueWrites                        0                       # Number of floating instruction queue writes (Count)
system.cpu.fpInstQueueWakeupAccesses                0                       # Number of floating instruction queue wakeup accesses (Count)
system.cpu.vecInstQueueReads                   384758                       # Number of vector instruction queue reads (Count)
system.cpu.vecInstQueueWrites                  197216                       # Number of vector instruction queue writes (Count)
system.cpu.vecInstQueueWakeupAccesses          186485                       # Number of vector instruction queue wakeup accesses (Count)
system.cpu.intAluAccesses                     5897083                       # Number of integer alu accesses (Count)
system.cpu.fpAluAccesses                            0                       # Number of floating point alu accesses (Count)
system.cpu.vecAluAccesses                      187636                       # Number of vector alu accesses (Count)
system.cpu.numInsts                           5906436                       # Number of executed instructions (Count)
system.cpu.numLoadInsts                       1351919                       # Number of load instructions executed (Count)
system.cpu.numSquashedInsts                     35231                       # Number of squashed instructions skipped in execute (Count)
system.cpu.numSwp                                   0                       # Number of swp insts executed (Count)
system.cpu.numNop                               15648                       # Number of nop insts executed (Count)
system.cpu.numRefs                            2196325                       # Number of memory reference insts executed (Count)
system.cpu.numBranches                         826378                       # Number of branches executed (Count)
system.cpu.numStoreInsts                       844406                       # Number of stores executed (Count)
system.cpu.numRate                           2.115671                       # Inst execution rate ((Count/Cycle))
system.cpu.timesIdled                             471                       # Number of times that the entire CPU went into an idle state and unscheduled itself (Count)
system.cpu.idleCycles                           40605                       # Total number of cycles that the CPU has spent unscheduled due to idling (Cycle)
system.cpu.committedInsts                     4846742                       # Number of Instructions Simulated (Count)
system.cpu.committedOps                       5375320                       # Number of Ops (including micro ops) Simulated (Count)
system.cpu.cpi                               0.576007                       # CPI: Cycles Per Instruction ((Cycle/Count))
system.cpu.totalCpi                          0.576007                       # CPI: Total CPI of All Threads ((Cycle/Count))
system.cpu.ipc                               1.736091                       # IPC: Instructions Per Cycle ((Count/Cycle))
system.cpu.totalIpc                          1.736091                       # IPC: Total IPC of All Threads ((Count/Cycle))
system.cpu.intRegfileReads                    6926856                       # Number of integer regfile reads (Count)
system.cpu.intRegfileWrites                   4171940                       # Number of integer regfile writes (Count)
system.cpu.vecRegfileReads                     248843                       # number of vector regfile reads (Count)
system.cpu.vecRegfileWrites                    152244                       # number of vector regfile writes (Count)
system.cpu.ccRegfileReads                     1838736                       # number of cc regfile reads (Count)
system.cpu.ccRegfileWrites                    1705605                       # number of cc regfile writes (Count)
system.cpu.miscRegfileReads                  11787916                       # number of misc regfile reads (Count)
system.cpu.miscRegfileWrites                       45                       # number of misc regfile writes (Count)
system.cpu.MemDepUnit__0.insertedLoads        1489894                       # Number of loads inserted to the mem dependence unit. (Count)
system.cpu.MemDepUnit__0.insertedStores        927617                       # Number of stores inserted to the mem dependence unit. (Count)
system.cpu.MemDepUnit__0.conflictingLoads       574200                       # Number of conflicting loads. (Count)
system.cpu.MemDepUnit__0.conflictingStores       183413                       # Number of conflicting stores. (Count)
system.cpu.MemDepUnit__1.insertedLoads              0                       # Number of loads inserted to the mem dependence unit. (Count)
system.cpu.MemDepUnit__1.insertedStores             0                       # Number of stores inserted to the mem dependence unit. (Count)
system.cpu.MemDepUnit__1.conflictingLoads            0                       # Number of conflicting loads. (Count)
system.cpu.MemDepUnit__1.conflictingStores            0                       # Number of conflicting stores. (Count)
system.cpu.MemDepUnit__2.insertedLoads              0                       # Number of loads inserted to the mem dependence unit. (Count)
system.cpu.MemDepUnit__2.insertedStores             0                       # Number of stores inserted to the mem dependence unit. (Count)
system.cpu.MemDepUnit__2.conflictingLoads            0                       # Number of conflicting loads. (Count)
system.cpu.MemDepUnit__2.conflictingStores            0                       # Number of conflicting stores. (Count)
system.cpu.MemDepUnit__3.insertedLoads              0                       # Number of loads inserted to the mem dependence unit. (Count)
system.cpu.MemDepUnit__3.insertedStores             0                       # Number of stores inserted to the mem dependence unit. (Count)
system.cpu.MemDepUnit__3.conflictingLoads            0                       # Number of conflicting loads. (Count)
system.cpu.MemDepUnit__3.conflictingStores            0                       # Number of conflicting stores. (Count)
system.cpu.branchPred.lookups                  936255                       # Number of BP lookups (Count)
system.cpu.branchPred.condPredicted            718752                       # Number of conditional branches predicted (Count)
system.cpu.branchPred.condIncorrect             22094                       # Number of conditional branches incorrect (Count)
system.cpu.branchPred.BTBLookups               499352                       # Number of BTB lookups (Count)
system.cpu.branchPred.BTBHits                  493960                       # Number of BTB hits (Count)
system.cpu.branchPred.BTBHitRatio            0.989202                       # BTB Hit Ratio (Ratio)
system.cpu.branchPred.RASUsed                   68947                       # Number of times the RAS was used to get a target. (Count)
system.cpu.branchPred.RASIncorrect                  2                       # Number of incorrect RAS predictions. (Count)
system.cpu.branchPred.indirectLookups           12485                       # Number of indirect predictor lookups. (Count)
system.cpu.branchPred.indirectHits              12281                       # Number of indirect target hits. (Count)
system.cpu.branchPred.indirectMisses              204                       # Number of indirect misses. (Count)
system.cpu.branchPred.indirectMispredicted           67                       # Number of mispredicted indirect branches. (Count)
system.cpu.commit.commitSquashedInsts          916857                       # The number of squashed insts skipped by commit (Count)
system.cpu.commit.commitNonSpecStalls            2107                       # The number of times commit has been forced to stall to communicate backwards (Count)
system.cpu.commit.branchMispredicts             21763                       # The number of times a branch was mispredicted (Count)
system.cpu.commit.numCommittedDist::samples      2619963                       # Number of insts commited each cycle (Count)
system.cpu.commit.numCommittedDist::mean     2.056387                       # Number of insts commited each cycle (Count)
system.cpu.commit.numCommittedDist::stdev     2.729655                       # Number of insts commited each cycle (Count)
system.cpu.commit.numCommittedDist::underflows            0      0.00%      0.00% # Number of insts commited each cycle (Count)
system.cpu.commit.numCommittedDist::0         1169817     44.65%     44.65% # Number of insts commited each cycle (Count)
system.cpu.commit.numCommittedDist::1          420576     16.05%     60.70% # Number of insts commited each cycle (Count)
system.cpu.commit.numCommittedDist::2          312972     11.95%     72.65% # Number of insts commited each cycle (Count)
system.cpu.commit.numCommittedDist::3           72330      2.76%     75.41% # Number of insts commited each cycle (Count)
system.cpu.commit.numCommittedDist::4          174551      6.66%     82.07% # Number of insts commited each cycle (Count)
system.cpu.commit.numCommittedDist::5           40057      1.53%     83.60% # Number of insts commited each cycle (Count)
system.cpu.commit.numCommittedDist::6           79438      3.03%     86.63% # Number of insts commited each cycle (Count)
system.cpu.commit.numCommittedDist::7           52744      2.01%     88.65% # Number of insts commited each cycle (Count)
system.cpu.commit.numCommittedDist::8          297478     11.35%    100.00% # Number of insts commited each cycle (Count)
system.cpu.commit.numCommittedDist::overflows            0      0.00%    100.00% # Number of insts commited each cycle (Count)
system.cpu.commit.numCommittedDist::min_value            0                       # Number of insts commited each cycle (Count)
system.cpu.commit.numCommittedDist::max_value            8                       # Number of insts commited each cycle (Count)
system.cpu.commit.numCommittedDist::total      2619963                       # Number of insts commited each cycle (Count)
system.cpu.commit.instsCommitted              4859081                       # Number of instructions committed (Count)
system.cpu.commit.opsCommitted                5387659                       # Number of ops (including micro ops) committed (Count)
system.cpu.commit.memRefs                     1928804                       # Number of memory references committed (Count)
system.cpu.commit.loads                       1164917                       # Number of loads committed (Count)
system.cpu.commit.amos                             14                       # Number of atomic instructions committed (Count)
system.cpu.commit.membars                          18                       # Number of memory barriers committed (Count)
system.cpu.commit.branches                     786964                       # Number of branches committed (Count)
system.cpu.commit.vectorInstructions           184574                       # Number of committed Vector instructions. (Count)
system.cpu.commit.floating                          0                       # Number of committed floating point instructions. (Count)
system.cpu.commit.integer                     4759112                       # Number of committed integer instructions. (Count)
system.cpu.commit.functionCalls                 57544                       # Number of function calls committed. (Count)
system.cpu.commit.committedInstType_0::No_OpClass         9394      0.17%      0.17% # Class of committed instruction (Count)
system.cpu.commit.committedInstType_0::IntAlu      3267747     60.65%     60.83% # Class of committed instruction (Count)
system.cpu.commit.committedInstType_0::IntMult        58153      1.08%     61.91% # Class of committed instruction (Count)
system.cpu.commit.committedInstType_0::IntDiv            3      0.00%     61.91% # Class of committed instruction (Count)
system.cpu.commit.committedInstType_0::FloatAdd            0      0.00%     61.91% # Class of committed instruction (Count)
system.cpu.commit.committedInstType_0::FloatCmp            0      0.00%     61.91% # Class of committed instruction (Count)
system.cpu.commit.committedInstType_0::FloatCvt            0      0.00%     61.91% # Class of committed instruction (Count)
system.cpu.commit.committedInstType_0::FloatMult            0      0.00%     61.91% # Class of committed instruction (Count)
system.cpu.commit.committedInstType_0::FloatMultAcc            0      0.00%     61.91% # Class of committed instruction (Count)
system.cpu.commit.committedInstType_0::FloatDiv            0      0.00%     61.91% # Class of committed instruction (Count)
system.cpu.commit.committedInstType_0::FloatMisc            0      0.00%     61.91% # Class of committed instruction (Count)
system.cpu.commit.committedInstType_0::FloatSqrt            0      0.00%     61.91% # Class of committed instruction (Count)
system.cpu.commit.committedInstType_0::SimdAdd        20098      0.37%     62.28% # Class of committed instruction (Count)
system.cpu.commit.committedInstType_0::SimdAddAcc            0      0.00%     62.28% # Class of committed instruction (Count)
system.cpu.commit.committedInstType_0::SimdAlu        38843      0.72%     63.00% # Class of committed instruction (Count)
system.cpu.commit.committedInstType_0::SimdCmp        37504      0.70%     63.70% # Class of committed instruction (Count)
system.cpu.commit.committedInstType_0::SimdCvt            0      0.00%     63.70% # Class of committed instruction (Count)
system.cpu.commit.committedInstType_0::SimdMisc        27113      0.50%     64.20% # Class of committed instruction (Count)
system.cpu.commit.committedInstType_0::SimdMult            0      0.00%     64.20% # Class of committed instruction (Count)
system.cpu.commit.committedInstType_0::SimdMultAcc            0      0.00%     64.20% # Class of committed instruction (Count)
system.cpu.commit.committedInstType_0::SimdShift            0      0.00%     64.20% # Class of committed instruction (Count)
system.cpu.commit.committedInstType_0::SimdShiftAcc            0      0.00%     64.20% # Class of committed instruction (Count)
system.cpu.commit.committedInstType_0::SimdDiv            0      0.00%     64.20% # Class of committed instruction (Count)
system.cpu.commit.committedInstType_0::SimdSqrt            0      0.00%     64.20% # Class of committed instruction (Count)
system.cpu.commit.committedInstType_0::SimdFloatAdd            0      0.00%     64.20% # Class of committed instruction (Count)
system.cpu.commit.committedInstType_0::SimdFloatAlu            0      0.00%     64.20% # Class of committed instruction (Count)
system.cpu.commit.committedInstType_0::SimdFloatCmp            0      0.00%     64.20% # Class of committed instruction (Count)
system.cpu.commit.committedInstType_0::SimdFloatCvt            0      0.00%     64.20% # Class of committed instruction (Count)
system.cpu.commit.committedInstType_0::SimdFloatDiv            0      0.00%     64.20% # Class of committed instruction (Count)
system.cpu.commit.committedInstType_0::SimdFloatMisc            0      0.00%     64.20% # Class of committed instruction (Count)
system.cpu.commit.committedInstType_0::SimdFloatMult            0      0.00%     64.20% # Class of committed instruction (Count)
system.cpu.commit.committedInstType_0::SimdFloatMultAcc            0      0.00%     64.20% # Class of committed instruction (Count)
system.cpu.commit.committedInstType_0::SimdFloatSqrt            0      0.00%     64.20% # Class of committed instruction (Count)
system.cpu.commit.committedInstType_0::SimdReduceAdd            0      0.00%     64.20% # Class of committed instruction (Count)
system.cpu.commit.committedInstType_0::SimdReduceAlu            0      0.00%     64.20% # Class of committed instruction (Count)
system.cpu.commit.committedInstType_0::SimdReduceCmp            0      0.00%     64.20% # Class of committed instruction (Count)
system.cpu.commit.committedInstType_0::SimdFloatReduceAdd            0      0.00%     64.20% # Class of committed instruction (Count)
system.cpu.commit.committedInstType_0::SimdFloatReduceCmp            0      0.00%     64.20% # Class of committed instruction (Count)
system.cpu.commit.committedInstType_0::SimdAes            0      0.00%     64.20% # Class of committed instruction (Count)
system.cpu.commit.committedInstType_0::SimdAesMix            0      0.00%     64.20% # Class of committed instruction (Count)
system.cpu.commit.committedInstType_0::SimdSha1Hash            0      0.00%     64.20% # Class of committed instruction (Count)
system.cpu.commit.committedInstType_0::SimdSha1Hash2            0      0.00%     64.20% # Class of committed instruction (Count)
system.cpu.commit.committedInstType_0::SimdSha256Hash            0      0.00%     64.20% # Class of committed instruction (Count)
system.cpu.commit.committedInstType_0::SimdSha256Hash2            0      0.00%     64.20% # Class of committed instruction (Count)
system.cpu.commit.committedInstType_0::SimdShaSigma2            0      0.00%     64.20% # Class of committed instruction (Count)
system.cpu.commit.committedInstType_0::SimdShaSigma3            0      0.00%     64.20% # Class of committed instruction (Count)
system.cpu.commit.committedInstType_0::SimdPredAlu            0      0.00%     64.20% # Class of committed instruction (Count)
system.cpu.commit.committedInstType_0::MemRead      1164917     21.62%     85.82% # Class of committed instruction (Count)
system.cpu.commit.committedInstType_0::MemWrite       763887     14.18%    100.00% # Class of committed instruction (Count)
system.cpu.commit.committedInstType_0::FloatMemRead            0      0.00%    100.00% # Class of committed instruction (Count)
system.cpu.commit.committedInstType_0::FloatMemWrite            0      0.00%    100.00% # Class of committed instruction (Count)
system.cpu.commit.committedInstType_0::IprAccess            0      0.00%    100.00% # Class of committed instruction (Count)
system.cpu.commit.committedInstType_0::InstPrefetch            0      0.00%    100.00% # Class of committed instruction (Count)
system.cpu.commit.committedInstType_0::total      5387659                       # Class of committed instruction (Count)
system.cpu.commit.commitEligibleSamples        297478                       # number cycles where commit BW limit reached (Cycle)
system.cpu.dcache.demandHits::cpu.data        1706449                       # number of demand (read+write) hits (Count)
system.cpu.dcache.demandHits::total           1706449                       # number of demand (read+write) hits (Count)
system.cpu.dcache.overallHits::cpu.data       1706453                       # number of overall hits (Count)
system.cpu.dcache.overallHits::total          1706453                       # number of overall hits (Count)
system.cpu.dcache.demandMisses::cpu.data        23922                       # number of demand (read+write) misses (Count)
system.cpu.dcache.demandMisses::total           23922                       # number of demand (read+write) misses (Count)
system.cpu.dcache.overallMisses::cpu.data        23924                       # number of overall misses (Count)
system.cpu.dcache.overallMisses::total          23924                       # number of overall misses (Count)
system.cpu.dcache.demandMissLatency::cpu.data    972003774                       # number of demand (read+write) miss ticks (Tick)
system.cpu.dcache.demandMissLatency::total    972003774                       # number of demand (read+write) miss ticks (Tick)
system.cpu.dcache.overallMissLatency::cpu.data    972003774                       # number of overall miss ticks (Tick)
system.cpu.dcache.overallMissLatency::total    972003774                       # number of overall miss ticks (Tick)
system.cpu.dcache.demandAccesses::cpu.data      1730371                       # number of demand (read+write) accesses (Count)
system.cpu.dcache.demandAccesses::total       1730371                       # number of demand (read+write) accesses (Count)
system.cpu.dcache.overallAccesses::cpu.data      1730377                       # number of overall (read+write) accesses (Count)
system.cpu.dcache.overallAccesses::total      1730377                       # number of overall (read+write) accesses (Count)
system.cpu.dcache.demandMissRate::cpu.data     0.013825                       # miss rate for demand accesses (Ratio)
system.cpu.dcache.demandMissRate::total      0.013825                       # miss rate for demand accesses (Ratio)
system.cpu.dcache.overallMissRate::cpu.data     0.013826                       # miss rate for overall accesses (Ratio)
system.cpu.dcache.overallMissRate::total     0.013826                       # miss rate for overall accesses (Ratio)
system.cpu.dcache.demandAvgMissLatency::cpu.data 40632.211939                       # average overall miss latency ((Cycle/Count))
system.cpu.dcache.demandAvgMissLatency::total 40632.211939                       # average overall miss latency ((Cycle/Count))
system.cpu.dcache.overallAvgMissLatency::cpu.data 40628.815165                       # average overall miss latency ((Cycle/Count))
system.cpu.dcache.overallAvgMissLatency::total 40628.815165                       # average overall miss latency ((Cycle/Count))
system.cpu.dcache.blockedCycles::no_mshrs         3836                       # number of cycles access was blocked (Cycle)
system.cpu.dcache.blockedCycles::no_targets            0                       # number of cycles access was blocked (Cycle)
system.cpu.dcache.blockedCauses::no_mshrs          270                       # number of times access was blocked (Count)
system.cpu.dcache.blockedCauses::no_targets            0                       # number of times access was blocked (Count)
system.cpu.dcache.avgBlocked::no_mshrs      14.207407                       # average number of cycles each access was blocked ((Cycle/Count))
system.cpu.dcache.avgBlocked::no_targets          nan                       # average number of cycles each access was blocked ((Cycle/Count))
system.cpu.dcache.writebacks::writebacks         4610                       # number of writebacks (Count)
system.cpu.dcache.writebacks::total              4610                       # number of writebacks (Count)
system.cpu.dcache.demandMshrHits::cpu.data        16606                       # number of demand (read+write) MSHR hits (Count)
system.cpu.dcache.demandMshrHits::total         16606                       # number of demand (read+write) MSHR hits (Count)
system.cpu.dcache.overallMshrHits::cpu.data        16606                       # number of overall MSHR hits (Count)
system.cpu.dcache.overallMshrHits::total        16606                       # number of overall MSHR hits (Count)
system.cpu.dcache.demandMshrMisses::cpu.data         7316                       # number of demand (read+write) MSHR misses (Count)
system.cpu.dcache.demandMshrMisses::total         7316                       # number of demand (read+write) MSHR misses (Count)
system.cpu.dcache.overallMshrMisses::cpu.data         7318                       # number of overall MSHR misses (Count)
system.cpu.dcache.overallMshrMisses::total         7318                       # number of overall MSHR misses (Count)
system.cpu.dcache.demandMshrMissLatency::cpu.data    326138297                       # number of demand (read+write) MSHR miss ticks (Tick)
system.cpu.dcache.demandMshrMissLatency::total    326138297                       # number of demand (read+write) MSHR miss ticks (Tick)
system.cpu.dcache.overallMshrMissLatency::cpu.data    326295297                       # number of overall MSHR miss ticks (Tick)
system.cpu.dcache.overallMshrMissLatency::total    326295297                       # number of overall MSHR miss ticks (Tick)
system.cpu.dcache.demandMshrMissRate::cpu.data     0.004228                       # mshr miss ratio for demand accesses (Ratio)
system.cpu.dcache.demandMshrMissRate::total     0.004228                       # mshr miss ratio for demand accesses (Ratio)
system.cpu.dcache.overallMshrMissRate::cpu.data     0.004229                       # mshr miss ratio for overall accesses (Ratio)
system.cpu.dcache.overallMshrMissRate::total     0.004229                       # mshr miss ratio for overall accesses (Ratio)
system.cpu.dcache.demandAvgMshrMissLatency::cpu.data 44578.772143                       # average overall mshr miss latency ((Cycle/Count))
system.cpu.dcache.demandAvgMshrMissLatency::total 44578.772143                       # average overall mshr miss latency ((Cycle/Count))
system.cpu.dcache.overallAvgMshrMissLatency::cpu.data 44588.042771                       # average overall mshr miss latency ((Cycle/Count))
system.cpu.dcache.overallAvgMshrMissLatency::total 44588.042771                       # average overall mshr miss latency ((Cycle/Count))
system.cpu.dcache.replacements                   7063                       # number of replacements (Count)
system.cpu.dcache.LoadLockedReq.hits::cpu.data            7                       # number of LoadLockedReq hits (Count)
system.cpu.dcache.LoadLockedReq.hits::total            7                       # number of LoadLockedReq hits (Count)
system.cpu.dcache.LoadLockedReq.misses::cpu.data            1                       # number of LoadLockedReq misses (Count)
system.cpu.dcache.LoadLockedReq.misses::total            1                       # number of LoadLockedReq misses (Count)
system.cpu.dcache.LoadLockedReq.missLatency::cpu.data        79000                       # number of LoadLockedReq miss ticks (Tick)
system.cpu.dcache.LoadLockedReq.missLatency::total        79000                       # number of LoadLockedReq miss ticks (Tick)
system.cpu.dcache.LoadLockedReq.accesses::cpu.data            8                       # number of LoadLockedReq accesses(hits+misses) (Count)
system.cpu.dcache.LoadLockedReq.accesses::total            8                       # number of LoadLockedReq accesses(hits+misses) (Count)
system.cpu.dcache.LoadLockedReq.missRate::cpu.data     0.125000                       # miss rate for LoadLockedReq accesses (Ratio)
system.cpu.dcache.LoadLockedReq.missRate::total     0.125000                       # miss rate for LoadLockedReq accesses (Ratio)
system.cpu.dcache.LoadLockedReq.avgMissLatency::cpu.data        79000                       # average LoadLockedReq miss latency ((Tick/Count))
system.cpu.dcache.LoadLockedReq.avgMissLatency::total        79000                       # average LoadLockedReq miss latency ((Tick/Count))
system.cpu.dcache.LoadLockedReq.mshrMisses::cpu.data            1                       # number of LoadLockedReq MSHR misses (Count)
system.cpu.dcache.LoadLockedReq.mshrMisses::total            1                       # number of LoadLockedReq MSHR misses (Count)
system.cpu.dcache.LoadLockedReq.mshrMissLatency::cpu.data        78000                       # number of LoadLockedReq MSHR miss ticks (Tick)
system.cpu.dcache.LoadLockedReq.mshrMissLatency::total        78000                       # number of LoadLockedReq MSHR miss ticks (Tick)
system.cpu.dcache.LoadLockedReq.mshrMissRate::cpu.data     0.125000                       # mshr miss rate for LoadLockedReq accesses (Ratio)
system.cpu.dcache.LoadLockedReq.mshrMissRate::total     0.125000                       # mshr miss rate for LoadLockedReq accesses (Ratio)
system.cpu.dcache.LoadLockedReq.avgMshrMissLatency::cpu.data        78000                       # average LoadLockedReq mshr miss latency ((Tick/Count))
system.cpu.dcache.LoadLockedReq.avgMshrMissLatency::total        78000                       # average LoadLockedReq mshr miss latency ((Tick/Count))
system.cpu.dcache.ReadReq.hits::cpu.data       954454                       # number of ReadReq hits (Count)
system.cpu.dcache.ReadReq.hits::total          954454                       # number of ReadReq hits (Count)
system.cpu.dcache.ReadReq.misses::cpu.data        12048                       # number of ReadReq misses (Count)
system.cpu.dcache.ReadReq.misses::total         12048                       # number of ReadReq misses (Count)
system.cpu.dcache.ReadReq.missLatency::cpu.data    526619500                       # number of ReadReq miss ticks (Tick)
system.cpu.dcache.ReadReq.missLatency::total    526619500                       # number of ReadReq miss ticks (Tick)
system.cpu.dcache.ReadReq.accesses::cpu.data       966502                       # number of ReadReq accesses(hits+misses) (Count)
system.cpu.dcache.ReadReq.accesses::total       966502                       # number of ReadReq accesses(hits+misses) (Count)
system.cpu.dcache.ReadReq.missRate::cpu.data     0.012466                       # miss rate for ReadReq accesses (Ratio)
system.cpu.dcache.ReadReq.missRate::total     0.012466                       # miss rate for ReadReq accesses (Ratio)
system.cpu.dcache.ReadReq.avgMissLatency::cpu.data 43710.117862                       # average ReadReq miss latency ((Tick/Count))
system.cpu.dcache.ReadReq.avgMissLatency::total 43710.117862                       # average ReadReq miss latency ((Tick/Count))
system.cpu.dcache.ReadReq.mshrHits::cpu.data         8031                       # number of ReadReq MSHR hits (Count)
system.cpu.dcache.ReadReq.mshrHits::total         8031                       # number of ReadReq MSHR hits (Count)
system.cpu.dcache.ReadReq.mshrMisses::cpu.data         4017                       # number of ReadReq MSHR misses (Count)
system.cpu.dcache.ReadReq.mshrMisses::total         4017                       # number of ReadReq MSHR misses (Count)
system.cpu.dcache.ReadReq.mshrMissLatency::cpu.data    222804000                       # number of ReadReq MSHR miss ticks (Tick)
system.cpu.dcache.ReadReq.mshrMissLatency::total    222804000                       # number of ReadReq MSHR miss ticks (Tick)
system.cpu.dcache.ReadReq.mshrMissRate::cpu.data     0.004156                       # mshr miss rate for ReadReq accesses (Ratio)
system.cpu.dcache.ReadReq.mshrMissRate::total     0.004156                       # mshr miss rate for ReadReq accesses (Ratio)
system.cpu.dcache.ReadReq.avgMshrMissLatency::cpu.data 55465.272591                       # average ReadReq mshr miss latency ((Tick/Count))
system.cpu.dcache.ReadReq.avgMshrMissLatency::total 55465.272591                       # average ReadReq mshr miss latency ((Tick/Count))
system.cpu.dcache.SoftPFReq.hits::cpu.data            4                       # number of SoftPFReq hits (Count)
system.cpu.dcache.SoftPFReq.hits::total             4                       # number of SoftPFReq hits (Count)
system.cpu.dcache.SoftPFReq.misses::cpu.data            2                       # number of SoftPFReq misses (Count)
system.cpu.dcache.SoftPFReq.misses::total            2                       # number of SoftPFReq misses (Count)
system.cpu.dcache.SoftPFReq.accesses::cpu.data            6                       # number of SoftPFReq accesses(hits+misses) (Count)
system.cpu.dcache.SoftPFReq.accesses::total            6                       # number of SoftPFReq accesses(hits+misses) (Count)
system.cpu.dcache.SoftPFReq.missRate::cpu.data     0.333333                       # miss rate for SoftPFReq accesses (Ratio)
system.cpu.dcache.SoftPFReq.missRate::total     0.333333                       # miss rate for SoftPFReq accesses (Ratio)
system.cpu.dcache.SoftPFReq.mshrMisses::cpu.data            2                       # number of SoftPFReq MSHR misses (Count)
system.cpu.dcache.SoftPFReq.mshrMisses::total            2                       # number of SoftPFReq MSHR misses (Count)
system.cpu.dcache.SoftPFReq.mshrMissLatency::cpu.data       157000                       # number of SoftPFReq MSHR miss ticks (Tick)
system.cpu.dcache.SoftPFReq.mshrMissLatency::total       157000                       # number of SoftPFReq MSHR miss ticks (Tick)
system.cpu.dcache.SoftPFReq.mshrMissRate::cpu.data     0.333333                       # mshr miss rate for SoftPFReq accesses (Ratio)
system.cpu.dcache.SoftPFReq.mshrMissRate::total     0.333333                       # mshr miss rate for SoftPFReq accesses (Ratio)
system.cpu.dcache.SoftPFReq.avgMshrMissLatency::cpu.data        78500                       # average SoftPFReq mshr miss latency ((Tick/Count))
system.cpu.dcache.SoftPFReq.avgMshrMissLatency::total        78500                       # average SoftPFReq mshr miss latency ((Tick/Count))
system.cpu.dcache.StoreCondReq.hits::cpu.data            4                       # number of StoreCondReq hits (Count)
system.cpu.dcache.StoreCondReq.hits::total            4                       # number of StoreCondReq hits (Count)
system.cpu.dcache.StoreCondReq.accesses::cpu.data            4                       # number of StoreCondReq accesses(hits+misses) (Count)
system.cpu.dcache.StoreCondReq.accesses::total            4                       # number of StoreCondReq accesses(hits+misses) (Count)
system.cpu.dcache.SwapReq.hits::cpu.data           13                       # number of SwapReq hits (Count)
system.cpu.dcache.SwapReq.hits::total              13                       # number of SwapReq hits (Count)
system.cpu.dcache.SwapReq.misses::cpu.data            1                       # number of SwapReq misses (Count)
system.cpu.dcache.SwapReq.misses::total             1                       # number of SwapReq misses (Count)
system.cpu.dcache.SwapReq.missLatency::cpu.data        47000                       # number of SwapReq miss ticks (Tick)
system.cpu.dcache.SwapReq.missLatency::total        47000                       # number of SwapReq miss ticks (Tick)
system.cpu.dcache.SwapReq.accesses::cpu.data           14                       # number of SwapReq accesses(hits+misses) (Count)
system.cpu.dcache.SwapReq.accesses::total           14                       # number of SwapReq accesses(hits+misses) (Count)
system.cpu.dcache.SwapReq.missRate::cpu.data     0.071429                       # miss rate for SwapReq accesses (Ratio)
system.cpu.dcache.SwapReq.missRate::total     0.071429                       # miss rate for SwapReq accesses (Ratio)
system.cpu.dcache.SwapReq.avgMissLatency::cpu.data        47000                       # average SwapReq miss latency ((Tick/Count))
system.cpu.dcache.SwapReq.avgMissLatency::total        47000                       # average SwapReq miss latency ((Tick/Count))
system.cpu.dcache.SwapReq.mshrHits::cpu.data            1                       # number of SwapReq MSHR hits (Count)
system.cpu.dcache.SwapReq.mshrHits::total            1                       # number of SwapReq MSHR hits (Count)
system.cpu.dcache.WriteLineReq.misses::cpu.data          257                       # number of WriteLineReq misses (Count)
system.cpu.dcache.WriteLineReq.misses::total          257                       # number of WriteLineReq misses (Count)
system.cpu.dcache.WriteLineReq.missLatency::cpu.data      4164299                       # number of WriteLineReq miss ticks (Tick)
system.cpu.dcache.WriteLineReq.missLatency::total      4164299                       # number of WriteLineReq miss ticks (Tick)
system.cpu.dcache.WriteLineReq.accesses::cpu.data          257                       # number of WriteLineReq accesses(hits+misses) (Count)
system.cpu.dcache.WriteLineReq.accesses::total          257                       # number of WriteLineReq accesses(hits+misses) (Count)
system.cpu.dcache.WriteLineReq.missRate::cpu.data            1                       # miss rate for WriteLineReq accesses (Ratio)
system.cpu.dcache.WriteLineReq.missRate::total            1                       # miss rate for WriteLineReq accesses (Ratio)
system.cpu.dcache.WriteLineReq.avgMissLatency::cpu.data 16203.498054                       # average WriteLineReq miss latency ((Tick/Count))
system.cpu.dcache.WriteLineReq.avgMissLatency::total 16203.498054                       # average WriteLineReq miss latency ((Tick/Count))
system.cpu.dcache.WriteLineReq.mshrMisses::cpu.data          257                       # number of WriteLineReq MSHR misses (Count)
system.cpu.dcache.WriteLineReq.mshrMisses::total          257                       # number of WriteLineReq MSHR misses (Count)
system.cpu.dcache.WriteLineReq.mshrMissLatency::cpu.data      3907299                       # number of WriteLineReq MSHR miss ticks (Tick)
system.cpu.dcache.WriteLineReq.mshrMissLatency::total      3907299                       # number of WriteLineReq MSHR miss ticks (Tick)
system.cpu.dcache.WriteLineReq.mshrMissRate::cpu.data            1                       # mshr miss rate for WriteLineReq accesses (Ratio)
system.cpu.dcache.WriteLineReq.mshrMissRate::total            1                       # mshr miss rate for WriteLineReq accesses (Ratio)
system.cpu.dcache.WriteLineReq.avgMshrMissLatency::cpu.data 15203.498054                       # average WriteLineReq mshr miss latency ((Tick/Count))
system.cpu.dcache.WriteLineReq.avgMshrMissLatency::total 15203.498054                       # average WriteLineReq mshr miss latency ((Tick/Count))
system.cpu.dcache.WriteReq.hits::cpu.data       751995                       # number of WriteReq hits (Count)
system.cpu.dcache.WriteReq.hits::total         751995                       # number of WriteReq hits (Count)
system.cpu.dcache.WriteReq.misses::cpu.data        11617                       # number of WriteReq misses (Count)
system.cpu.dcache.WriteReq.misses::total        11617                       # number of WriteReq misses (Count)
system.cpu.dcache.WriteReq.missLatency::cpu.data    441219975                       # number of WriteReq miss ticks (Tick)
system.cpu.dcache.WriteReq.missLatency::total    441219975                       # number of WriteReq miss ticks (Tick)
system.cpu.dcache.WriteReq.accesses::cpu.data       763612                       # number of WriteReq accesses(hits+misses) (Count)
system.cpu.dcache.WriteReq.accesses::total       763612                       # number of WriteReq accesses(hits+misses) (Count)
system.cpu.dcache.WriteReq.missRate::cpu.data     0.015213                       # miss rate for WriteReq accesses (Ratio)
system.cpu.dcache.WriteReq.missRate::total     0.015213                       # miss rate for WriteReq accesses (Ratio)
system.cpu.dcache.WriteReq.avgMissLatency::cpu.data 37980.543600                       # average WriteReq miss latency ((Tick/Count))
system.cpu.dcache.WriteReq.avgMissLatency::total 37980.543600                       # average WriteReq miss latency ((Tick/Count))
system.cpu.dcache.WriteReq.mshrHits::cpu.data         8575                       # number of WriteReq MSHR hits (Count)
system.cpu.dcache.WriteReq.mshrHits::total         8575                       # number of WriteReq MSHR hits (Count)
system.cpu.dcache.WriteReq.mshrMisses::cpu.data         3042                       # number of WriteReq MSHR misses (Count)
system.cpu.dcache.WriteReq.mshrMisses::total         3042                       # number of WriteReq MSHR misses (Count)
system.cpu.dcache.WriteReq.mshrMissLatency::cpu.data     99426998                       # number of WriteReq MSHR miss ticks (Tick)
system.cpu.dcache.WriteReq.mshrMissLatency::total     99426998                       # number of WriteReq MSHR miss ticks (Tick)
system.cpu.dcache.WriteReq.mshrMissRate::cpu.data     0.003984                       # mshr miss rate for WriteReq accesses (Ratio)
system.cpu.dcache.WriteReq.mshrMissRate::total     0.003984                       # mshr miss rate for WriteReq accesses (Ratio)
system.cpu.dcache.WriteReq.avgMshrMissLatency::cpu.data 32684.746220                       # average WriteReq mshr miss latency ((Tick/Count))
system.cpu.dcache.WriteReq.avgMshrMissLatency::total 32684.746220                       # average WriteReq mshr miss latency ((Tick/Count))
system.cpu.dcache.power_state.pwrStateResidencyTicks::UNDEFINED   1395877500                       # Cumulative time (in ticks) in various power states (Tick)
system.cpu.dcache.tags.tagsInUse           252.562899                       # Average ticks per tags in use ((Tick/Count))
system.cpu.dcache.tags.totalRefs              1713796                       # Total number of references to valid blocks. (Count)
system.cpu.dcache.tags.sampledRefs               7319                       # Sample count of references to valid blocks. (Count)
system.cpu.dcache.tags.avgRefs             234.157125                       # Average number of references to valid blocks. ((Count/Count))
system.cpu.dcache.tags.warmupTick              145000                       # The tick when the warmup percentage was hit. (Tick)
system.cpu.dcache.tags.occupancies::cpu.data   252.562899                       # Average occupied blocks per tick, per requestor ((Count/Tick))
system.cpu.dcache.tags.avgOccs::cpu.data     0.986574                       # Average percentage of cache occupancy ((Ratio/Tick))
system.cpu.dcache.tags.avgOccs::total        0.986574                       # Average percentage of cache occupancy ((Ratio/Tick))
system.cpu.dcache.tags.occupanciesTaskId::1024          256                       # Occupied blocks per task id (Count)
system.cpu.dcache.tags.ageTaskId_1024::0           70                       # Occupied blocks per task id, per block age (Count)
system.cpu.dcache.tags.ageTaskId_1024::1          162                       # Occupied blocks per task id, per block age (Count)
system.cpu.dcache.tags.ageTaskId_1024::2           21                       # Occupied blocks per task id, per block age (Count)
system.cpu.dcache.tags.ageTaskId_1024::3            3                       # Occupied blocks per task id, per block age (Count)
system.cpu.dcache.tags.ratioOccsTaskId::1024            1                       # Ratio of occupied blocks and all blocks, per task id (Ratio)
system.cpu.dcache.tags.tagAccesses            3468125                       # Number of tag accesses (Count)
system.cpu.dcache.tags.dataAccesses           3468125                       # Number of data accesses (Count)
system.cpu.dcache.tags.power_state.pwrStateResidencyTicks::UNDEFINED   1395877500                       # Cumulative time (in ticks) in various power states (Tick)
system.cpu.decode.idleCycles                   621381                       # Number of cycles decode is idle (Cycle)
system.cpu.decode.blockedCycles                947651                       # Number of cycles decode is blocked (Cycle)
system.cpu.decode.runCycles                   1060953                       # Number of cycles decode is running (Cycle)
system.cpu.decode.unblockCycles                 97125                       # Number of cycles decode is unblocking (Cycle)
system.cpu.decode.squashCycles                  24041                       # Number of cycles decode is squashing (Cycle)
system.cpu.decode.branchResolved               471764                       # Number of times decode resolved a branch (Count)
system.cpu.decode.branchMispred                   345                       # Number of times decode detected a branch misprediction (Count)
system.cpu.decode.decodedInsts                6502068                       # Number of instructions handled by decode (Count)
system.cpu.decode.squashedInsts                  1233                       # Number of squashed instructions handled by decode (Count)
system.cpu.fetch.icacheStallCycles             864518                       # Number of cycles fetch is stalled on an Icache miss (Cycle)
system.cpu.fetch.insts                        6240633                       # Number of instructions fetch has processed (Count)
system.cpu.fetch.branches                      936255                       # Number of branches that fetch encountered (Count)
system.cpu.fetch.predictedBranches             575188                       # Number of branches that fetch has predicted taken (Count)
system.cpu.fetch.cycles                       1862082                       # Number of cycles fetch has run and was not squashing or blocked (Cycle)
system.cpu.fetch.squashCycles                   48744                       # Number of cycles fetch has spent squashing (Cycle)
system.cpu.fetch.miscStallCycles                   67                       # Number of cycles fetch has spent waiting on interrupts, or bad addresses, or out of MSHRs (Cycle)
system.cpu.fetch.icacheWaitRetryStallCycles          112                       # Number of stall cycles due to full MSHR (Cycle)
system.cpu.fetch.cacheLines                    839477                       # Number of cache lines fetched (Count)
system.cpu.fetch.icacheSquashes                  8902                       # Number of outstanding Icache misses that were squashed (Count)
system.cpu.fetch.nisnDist::samples            2751151                       # Number of instructions fetched each cycle (Total) (Count)
system.cpu.fetch.nisnDist::mean              2.483279                       # Number of instructions fetched each cycle (Total) (Count)
system.cpu.fetch.nisnDist::stdev             3.155867                       # Number of instructions fetched each cycle (Total) (Count)
system.cpu.fetch.nisnDist::underflows               0      0.00%      0.00% # Number of instructions fetched each cycle (Total) (Count)
system.cpu.fetch.nisnDist::0                  1425470     51.81%     51.81% # Number of instructions fetched each cycle (Total) (Count)
system.cpu.fetch.nisnDist::1                   156900      5.70%     57.52% # Number of instructions fetched each cycle (Total) (Count)
system.cpu.fetch.nisnDist::2                   159968      5.81%     63.33% # Number of instructions fetched each cycle (Total) (Count)
system.cpu.fetch.nisnDist::3                   121805      4.43%     67.76% # Number of instructions fetched each cycle (Total) (Count)
system.cpu.fetch.nisnDist::4                   113006      4.11%     71.87% # Number of instructions fetched each cycle (Total) (Count)
system.cpu.fetch.nisnDist::5                   141234      5.13%     77.00% # Number of instructions fetched each cycle (Total) (Count)
system.cpu.fetch.nisnDist::6                    48549      1.76%     78.76% # Number of instructions fetched each cycle (Total) (Count)
system.cpu.fetch.nisnDist::7                   133615      4.86%     83.62% # Number of instructions fetched each cycle (Total) (Count)
system.cpu.fetch.nisnDist::8                   450604     16.38%    100.00% # Number of instructions fetched each cycle (Total) (Count)
system.cpu.fetch.nisnDist::overflows                0      0.00%    100.00% # Number of instructions fetched each cycle (Total) (Count)
system.cpu.fetch.nisnDist::min_value                0                       # Number of instructions fetched each cycle (Total) (Count)
system.cpu.fetch.nisnDist::max_value                8                       # Number of instructions fetched each cycle (Total) (Count)
system.cpu.fetch.nisnDist::total              2751151                       # Number of instructions fetched each cycle (Total) (Count)
system.cpu.fetch.branchRate                  0.335364                       # Number of branch fetches per cycle (Ratio)
system.cpu.fetch.rate                        2.235379                       # Number of inst fetches per cycle ((Count/Cycle))
system.cpu.icache.demandHits::cpu.inst         838565                       # number of demand (read+write) hits (Count)
system.cpu.icache.demandHits::total            838565                       # number of demand (read+write) hits (Count)
system.cpu.icache.overallHits::cpu.inst        838565                       # number of overall hits (Count)
system.cpu.icache.overallHits::total           838565                       # number of overall hits (Count)
system.cpu.icache.demandMisses::cpu.inst          911                       # number of demand (read+write) misses (Count)
system.cpu.icache.demandMisses::total             911                       # number of demand (read+write) misses (Count)
system.cpu.icache.overallMisses::cpu.inst          911                       # number of overall misses (Count)
system.cpu.icache.overallMisses::total            911                       # number of overall misses (Count)
system.cpu.icache.demandMissLatency::cpu.inst     55762496                       # number of demand (read+write) miss ticks (Tick)
system.cpu.icache.demandMissLatency::total     55762496                       # number of demand (read+write) miss ticks (Tick)
system.cpu.icache.overallMissLatency::cpu.inst     55762496                       # number of overall miss ticks (Tick)
system.cpu.icache.overallMissLatency::total     55762496                       # number of overall miss ticks (Tick)
system.cpu.icache.demandAccesses::cpu.inst       839476                       # number of demand (read+write) accesses (Count)
system.cpu.icache.demandAccesses::total        839476                       # number of demand (read+write) accesses (Count)
system.cpu.icache.overallAccesses::cpu.inst       839476                       # number of overall (read+write) accesses (Count)
system.cpu.icache.overallAccesses::total       839476                       # number of overall (read+write) accesses (Count)
system.cpu.icache.demandMissRate::cpu.inst     0.001085                       # miss rate for demand accesses (Ratio)
system.cpu.icache.demandMissRate::total      0.001085                       # miss rate for demand accesses (Ratio)
system.cpu.icache.overallMissRate::cpu.inst     0.001085                       # miss rate for overall accesses (Ratio)
system.cpu.icache.overallMissRate::total     0.001085                       # miss rate for overall accesses (Ratio)
system.cpu.icache.demandAvgMissLatency::cpu.inst 61210.204171                       # average overall miss latency ((Cycle/Count))
system.cpu.icache.demandAvgMissLatency::total 61210.204171                       # average overall miss latency ((Cycle/Count))
system.cpu.icache.overallAvgMissLatency::cpu.inst 61210.204171                       # average overall miss latency ((Cycle/Count))
system.cpu.icache.overallAvgMissLatency::total 61210.204171                       # average overall miss latency ((Cycle/Count))
system.cpu.icache.blockedCycles::no_mshrs          745                       # number of cycles access was blocked (Cycle)
system.cpu.icache.blockedCycles::no_targets            0                       # number of cycles access was blocked (Cycle)
system.cpu.icache.blockedCauses::no_mshrs           14                       # number of times access was blocked (Count)
system.cpu.icache.blockedCauses::no_targets            0                       # number of times access was blocked (Count)
system.cpu.icache.avgBlocked::no_mshrs      53.214286                       # average number of cycles each access was blocked ((Cycle/Count))
system.cpu.icache.avgBlocked::no_targets          nan                       # average number of cycles each access was blocked ((Cycle/Count))
system.cpu.icache.writebacks::writebacks          223                       # number of writebacks (Count)
system.cpu.icache.writebacks::total               223                       # number of writebacks (Count)
system.cpu.icache.demandMshrHits::cpu.inst          248                       # number of demand (read+write) MSHR hits (Count)
system.cpu.icache.demandMshrHits::total           248                       # number of demand (read+write) MSHR hits (Count)
system.cpu.icache.overallMshrHits::cpu.inst          248                       # number of overall MSHR hits (Count)
system.cpu.icache.overallMshrHits::total          248                       # number of overall MSHR hits (Count)
system.cpu.icache.demandMshrMisses::cpu.inst          663                       # number of demand (read+write) MSHR misses (Count)
system.cpu.icache.demandMshrMisses::total          663                       # number of demand (read+write) MSHR misses (Count)
system.cpu.icache.overallMshrMisses::cpu.inst          663                       # number of overall MSHR misses (Count)
system.cpu.icache.overallMshrMisses::total          663                       # number of overall MSHR misses (Count)
system.cpu.icache.demandMshrMissLatency::cpu.inst     42327997                       # number of demand (read+write) MSHR miss ticks (Tick)
system.cpu.icache.demandMshrMissLatency::total     42327997                       # number of demand (read+write) MSHR miss ticks (Tick)
system.cpu.icache.overallMshrMissLatency::cpu.inst     42327997                       # number of overall MSHR miss ticks (Tick)
system.cpu.icache.overallMshrMissLatency::total     42327997                       # number of overall MSHR miss ticks (Tick)
system.cpu.icache.demandMshrMissRate::cpu.inst     0.000790                       # mshr miss ratio for demand accesses (Ratio)
system.cpu.icache.demandMshrMissRate::total     0.000790                       # mshr miss ratio for demand accesses (Ratio)
system.cpu.icache.overallMshrMissRate::cpu.inst     0.000790                       # mshr miss ratio for overall accesses (Ratio)
system.cpu.icache.overallMshrMissRate::total     0.000790                       # mshr miss ratio for overall accesses (Ratio)
system.cpu.icache.demandAvgMshrMissLatency::cpu.inst 63843.132730                       # average overall mshr miss latency ((Cycle/Count))
system.cpu.icache.demandAvgMshrMissLatency::total 63843.132730                       # average overall mshr miss latency ((Cycle/Count))
system.cpu.icache.overallAvgMshrMissLatency::cpu.inst 63843.132730                       # average overall mshr miss latency ((Cycle/Count))
system.cpu.icache.overallAvgMshrMissLatency::total 63843.132730                       # average overall mshr miss latency ((Cycle/Count))
system.cpu.icache.replacements                    223                       # number of replacements (Count)
system.cpu.icache.ReadReq.hits::cpu.inst       838565                       # number of ReadReq hits (Count)
system.cpu.icache.ReadReq.hits::total          838565                       # number of ReadReq hits (Count)
system.cpu.icache.ReadReq.misses::cpu.inst          911                       # number of ReadReq misses (Count)
system.cpu.icache.ReadReq.misses::total           911                       # number of ReadReq misses (Count)
system.cpu.icache.ReadReq.missLatency::cpu.inst     55762496                       # number of ReadReq miss ticks (Tick)
system.cpu.icache.ReadReq.missLatency::total     55762496                       # number of ReadReq miss ticks (Tick)
system.cpu.icache.ReadReq.accesses::cpu.inst       839476                       # number of ReadReq accesses(hits+misses) (Count)
system.cpu.icache.ReadReq.accesses::total       839476                       # number of ReadReq accesses(hits+misses) (Count)
system.cpu.icache.ReadReq.missRate::cpu.inst     0.001085                       # miss rate for ReadReq accesses (Ratio)
system.cpu.icache.ReadReq.missRate::total     0.001085                       # miss rate for ReadReq accesses (Ratio)
system.cpu.icache.ReadReq.avgMissLatency::cpu.inst 61210.204171                       # average ReadReq miss latency ((Tick/Count))
system.cpu.icache.ReadReq.avgMissLatency::total 61210.204171                       # average ReadReq miss latency ((Tick/Count))
system.cpu.icache.ReadReq.mshrHits::cpu.inst          248                       # number of ReadReq MSHR hits (Count)
system.cpu.icache.ReadReq.mshrHits::total          248                       # number of ReadReq MSHR hits (Count)
system.cpu.icache.ReadReq.mshrMisses::cpu.inst          663                       # number of ReadReq MSHR misses (Count)
system.cpu.icache.ReadReq.mshrMisses::total          663                       # number of ReadReq MSHR misses (Count)
system.cpu.icache.ReadReq.mshrMissLatency::cpu.inst     42327997                       # number of ReadReq MSHR miss ticks (Tick)
system.cpu.icache.ReadReq.mshrMissLatency::total     42327997                       # number of ReadReq MSHR miss ticks (Tick)
system.cpu.icache.ReadReq.mshrMissRate::cpu.inst     0.000790                       # mshr miss rate for ReadReq accesses (Ratio)
system.cpu.icache.ReadReq.mshrMissRate::total     0.000790                       # mshr miss rate for ReadReq accesses (Ratio)
system.cpu.icache.ReadReq.avgMshrMissLatency::cpu.inst 63843.132730                       # average ReadReq mshr miss latency ((Tick/Count))
system.cpu.icache.ReadReq.avgMshrMissLatency::total 63843.132730                       # average ReadReq mshr miss latency ((Tick/Count))
system.cpu.icache.power_state.pwrStateResidencyTicks::UNDEFINED   1395877500                       # Cumulative time (in ticks) in various power states (Tick)
system.cpu.icache.tags.tagsInUse           371.330089                       # Average ticks per tags in use ((Tick/Count))
system.cpu.icache.tags.totalRefs               839227                       # Total number of references to valid blocks. (Count)
system.cpu.icache.tags.sampledRefs                662                       # Sample count of references to valid blocks. (Count)
system.cpu.icache.tags.avgRefs            1267.714502                       # Average number of references to valid blocks. ((Count/Count))
system.cpu.icache.tags.warmupTick               77000                       # The tick when the warmup percentage was hit. (Tick)
system.cpu.icache.tags.occupancies::cpu.inst   371.330089                       # Average occupied blocks per tick, per requestor ((Count/Tick))
system.cpu.icache.tags.avgOccs::cpu.inst     0.725254                       # Average percentage of cache occupancy ((Ratio/Tick))
system.cpu.icache.tags.avgOccs::total        0.725254                       # Average percentage of cache occupancy ((Ratio/Tick))
system.cpu.icache.tags.occupanciesTaskId::1024          439                       # Occupied blocks per task id (Count)
system.cpu.icache.tags.ageTaskId_1024::0          116                       # Occupied blocks per task id, per block age (Count)
system.cpu.icache.tags.ageTaskId_1024::1           10                       # Occupied blocks per task id, per block age (Count)
system.cpu.icache.tags.ageTaskId_1024::2           84                       # Occupied blocks per task id, per block age (Count)
system.cpu.icache.tags.ageTaskId_1024::3          229                       # Occupied blocks per task id, per block age (Count)
system.cpu.icache.tags.ratioOccsTaskId::1024     0.857422                       # Ratio of occupied blocks and all blocks, per task id (Ratio)
system.cpu.icache.tags.tagAccesses            1679614                       # Number of tag accesses (Count)
system.cpu.icache.tags.dataAccesses           1679614                       # Number of data accesses (Count)
system.cpu.icache.tags.power_state.pwrStateResidencyTicks::UNDEFINED   1395877500                       # Cumulative time (in ticks) in various power states (Tick)
system.cpu.iew.idleCycles                           0                       # Number of cycles IEW is idle (Cycle)
system.cpu.iew.squashCycles                     24041                       # Number of cycles IEW is squashing (Cycle)
system.cpu.iew.blockCycles                     124545                       # Number of cycles IEW is blocking (Cycle)
system.cpu.iew.unblockCycles                    32473                       # Number of cycles IEW is unblocking (Cycle)
system.cpu.iew.dispatchedInsts                6304498                       # Number of instructions dispatched to IQ (Count)
system.cpu.iew.dispSquashedInsts                 1607                       # Number of squashed instructions skipped by dispatch (Count)
[...]
system.mem_ctrls.dram.bwRead::cpu.inst       30352234                       # Total read bandwidth from this memory ((Byte/Second))
system.mem_ctrls.dram.bwRead::cpu.data      323696026                       # Total read bandwidth from this memory ((Byte/Second))
system.mem_ctrls.dram.bwRead::total         354048260                       # Total read bandwidth from this memory ((Byte/Second))
system.mem_ctrls.dram.bwInstRead::cpu.inst     30352234                       # Instruction read bandwidth from this memory ((Byte/Second))
system.mem_ctrls.dram.bwInstRead::total      30352234                       # Instruction read bandwidth from this memory ((Byte/Second))
system.mem_ctrls.dram.bwWrite::writebacks    211365252                       # Write bandwidth from this memory ((Byte/Second))
system.mem_ctrls.dram.bwWrite::total        211365252                       # Write bandwidth from this memory ((Byte/Second))
system.mem_ctrls.dram.bwTotal::writebacks    211365252                       # Total bandwidth to/from this memory ((Byte/Second))
system.mem_ctrls.dram.bwTotal::cpu.inst      30352234                       # Total bandwidth to/from this memory ((Byte/Second))
system.mem_ctrls.dram.bwTotal::cpu.data     323696026                       # Total bandwidth to/from this memory ((Byte/Second))
system.mem_ctrls.dram.bwTotal::total        565413512                       # Total bandwidth to/from this memory ((Byte/Second))
system.mem_ctrls.dram.readBursts                 5458                       # Number of DRAM read bursts (Count)
system.mem_ctrls.dram.writeBursts                2697                       # Number of DRAM write bursts (Count)
system.mem_ctrls.dram.perBankRdBursts::0          143                       # Per bank write bursts (Count)
system.mem_ctrls.dram.perBankRdBursts::1          205                       # Per bank write bursts (Count)
system.mem_ctrls.dram.perBankRdBursts::2          331                       # Per bank write bursts (Count)
system.mem_ctrls.dram.perBankRdBursts::3          317                       # Per bank write bursts (Count)
system.mem_ctrls.dram.perBankRdBursts::4          778                       # Per bank write bursts (Count)
system.mem_ctrls.dram.perBankRdBursts::5          465                       # Per bank write bursts (Count)
system.mem_ctrls.dram.perBankRdBursts::6          259                       # Per bank write bursts (Count)
system.mem_ctrls.dram.perBankRdBursts::7          324                       # Per bank write bursts (Count)
system.mem_ctrls.dram.perBankRdBursts::8          229                       # Per bank write bursts (Count)
system.mem_ctrls.dram.perBankRdBursts::9           97                       # Per bank write bursts (Count)
system.mem_ctrls.dram.perBankRdBursts::10           25                       # Per bank write bursts (Count)
system.mem_ctrls.dram.perBankRdBursts::11           37                       # Per bank write bursts (Count)
system.mem_ctrls.dram.perBankRdBursts::12           36                       # Per bank write bursts (Count)
system.mem_ctrls.dram.perBankRdBursts::13           44                       # Per bank write bursts (Count)
system.mem_ctrls.dram.perBankRdBursts::14         2076                       # Per bank write bursts (Count)
system.mem_ctrls.dram.perBankRdBursts::15           92                       # Per bank write bursts (Count)
system.mem_ctrls.dram.perBankWrBursts::0           15                       # Per bank write bursts (Count)
system.mem_ctrls.dram.perBankWrBursts::1           96                       # Per bank write bursts (Count)
system.mem_ctrls.dram.perBankWrBursts::2          289                       # Per bank write bursts (Count)
system.mem_ctrls.dram.perBankWrBursts::3          265                       # Per bank write bursts (Count)
system.mem_ctrls.dram.perBankWrBursts::4          718                       # Per bank write bursts (Count)
system.mem_ctrls.dram.perBankWrBursts::5          448                       # Per bank write bursts (Count)
system.mem_ctrls.dram.perBankWrBursts::6          265                       # Per bank write bursts (Count)
system.mem_ctrls.dram.perBankWrBursts::7          257                       # Per bank write bursts (Count)
system.mem_ctrls.dram.perBankWrBursts::8          220                       # Per bank write bursts (Count)
system.mem_ctrls.dram.perBankWrBursts::9           68                       # Per bank write bursts (Count)
system.mem_ctrls.dram.perBankWrBursts::10            0                       # Per bank write bursts (Count)
system.mem_ctrls.dram.perBankWrBursts::11           14                       # Per bank write bursts (Count)
system.mem_ctrls.dram.perBankWrBursts::12            0                       # Per bank write bursts (Count)
system.mem_ctrls.dram.perBankWrBursts::13            1                       # Per bank write bursts (Count)
system.mem_ctrls.dram.perBankWrBursts::14           14                       # Per bank write bursts (Count)
system.mem_ctrls.dram.perBankWrBursts::15           27                       # Per bank write bursts (Count)
system.mem_ctrls.dram.totQLat                42063500                       # Total ticks spent queuing (Tick)
system.mem_ctrls.dram.totBusLat              27290000                       # Total ticks spent in databus transfers (Tick)
system.mem_ctrls.dram.totMemAccLat          144401000                       # Total ticks spent from burst creation until serviced by the DRAM (Tick)
system.mem_ctrls.dram.avgQLat                 7706.76                       # Average queueing delay per DRAM burst ((Tick/Count))
system.mem_ctrls.dram.avgBusLat               5000.00                       # Average bus latency per DRAM burst ((Tick/Count))
system.mem_ctrls.dram.avgMemAccLat           26456.76                       # Average memory access latency per DRAM burst ((Tick/Count))
system.mem_ctrls.dram.readRowHits                4736                       # Number of row buffer hits during reads (Count)
system.mem_ctrls.dram.writeRowHits               2414                       # Number of row buffer hits during writes (Count)
system.mem_ctrls.dram.readRowHitRate            86.77                       # Row buffer hit rate for reads (Ratio)
system.mem_ctrls.dram.writeRowHitRate           89.51                       # Row buffer hit rate for writes (Ratio)
system.mem_ctrls.dram.bytesPerActivate::samples          993                       # Bytes accessed per row activation (Byte)
system.mem_ctrls.dram.bytesPerActivate::mean   523.859013                       # Bytes accessed per row activation (Byte)
system.mem_ctrls.dram.bytesPerActivate::gmean   341.211727                       # Bytes accessed per row activation (Byte)
system.mem_ctrls.dram.bytesPerActivate::stdev   388.340551                       # Bytes accessed per row activation (Byte)
system.mem_ctrls.dram.bytesPerActivate::0-127          181     18.23%     18.23% # Bytes accessed per row activation (Byte)
system.mem_ctrls.dram.bytesPerActivate::128-255          167     16.82%     35.05% # Bytes accessed per row activation (Byte)
system.mem_ctrls.dram.bytesPerActivate::256-383          106     10.67%     45.72% # Bytes accessed per row activation (Byte)
system.mem_ctrls.dram.bytesPerActivate::384-511           76      7.65%     53.37% # Bytes accessed per row activation (Byte)
system.mem_ctrls.dram.bytesPerActivate::512-639           43      4.33%     57.70% # Bytes accessed per row activation (Byte)
system.mem_ctrls.dram.bytesPerActivate::640-767           42      4.23%     61.93% # Bytes accessed per row activation (Byte)
system.mem_ctrls.dram.bytesPerActivate::768-895           31      3.12%     65.06% # Bytes accessed per row activation (Byte)
system.mem_ctrls.dram.bytesPerActivate::896-1023          124     12.49%     77.54% # Bytes accessed per row activation (Byte)
system.mem_ctrls.dram.bytesPerActivate::1024-1151          223     22.46%    100.00% # Bytes accessed per row activation (Byte)
system.mem_ctrls.dram.bytesPerActivate::total          993                       # Bytes accessed per row activation (Byte)
system.mem_ctrls.dram.bytesRead                349312                       # Total bytes read (Byte)
system.mem_ctrls.dram.bytesWritten             172608                       # Total bytes written (Byte)
system.mem_ctrls.dram.avgRdBW              250.245455                       # Average DRAM read bandwidth in MiBytes/s ((Byte/Second))
system.mem_ctrls.dram.avgWrBW              123.655550                       # Average DRAM write bandwidth in MiBytes/s ((Byte/Second))
system.mem_ctrls.dram.peakBW                 12800.00                       # Theoretical peak bandwidth in MiByte/s ((Byte/Second))
system.mem_ctrls.dram.busUtil                    2.92                       # Data bus utilization in percentage (Ratio)
system.mem_ctrls.dram.busUtilRead                1.96                       # Data bus utilization in percentage for reads (Ratio)
system.mem_ctrls.dram.busUtilWrite               0.97                       # Data bus utilization in percentage for writes (Ratio)
system.mem_ctrls.dram.pageHitRate               87.68                       # Row buffer hit rate, read and write combined (Ratio)
system.mem_ctrls.dram.power_state.pwrStateResidencyTicks::UNDEFINED   1395877500                       # Cumulative time (in ticks) in various power states (Tick)
system.mem_ctrls.dram.rank0.actEnergy         5076540                       # Energy for activate commands per rank (pJ) (Joule)
system.mem_ctrls.dram.rank0.preEnergy         2679270                       # Energy for precharge commands per rank (pJ) (Joule)
system.mem_ctrls.dram.rank0.readEnergy       20141940                       # Energy for read commands per rank (pJ) (Joule)
system.mem_ctrls.dram.rank0.writeEnergy      12282660                       # Energy for write commands per rank (pJ) (Joule)
system.mem_ctrls.dram.rank0.refreshEnergy 110020560.000000                       # Energy for refresh commands per rank (pJ) (Joule)
system.mem_ctrls.dram.rank0.actBackEnergy    377035050                       # Energy for active background per rank (pJ) (Joule)
system.mem_ctrls.dram.rank0.preBackEnergy    218513760                       # Energy for precharge background per rank (pJ) (Joule)
system.mem_ctrls.dram.rank0.actPowerDownEnergy            0                       # Energy for active power-down per rank (pJ) (Joule)
system.mem_ctrls.dram.rank0.prePowerDownEnergy            0                       # Energy for precharge power-down per rank (pJ) (Joule)
system.mem_ctrls.dram.rank0.selfRefreshEnergy            0                       # Energy for self refresh per rank (pJ) (Joule)
system.mem_ctrls.dram.rank0.totalEnergy     745749780                       # Total energy per rank (pJ) (Joule)
system.mem_ctrls.dram.rank0.averagePower   534.251594                       # Core power per rank (mW) (Watt)
system.mem_ctrls.dram.rank0.totalIdleTime            0                       # Total Idle time Per DRAM Rank (Tick)
system.mem_ctrls.dram.rank0.pwrStateTime::IDLE    564800250                       # Time in different power states (Tick)
system.mem_ctrls.dram.rank0.pwrStateTime::REF     46540000                       # Time in different power states (Tick)
system.mem_ctrls.dram.rank0.pwrStateTime::SREF            0                       # Time in different power states (Tick)
system.mem_ctrls.dram.rank0.pwrStateTime::PRE_PDN            0                       # Time in different power states (Tick)
system.mem_ctrls.dram.rank0.pwrStateTime::ACT    784537250                       # Time in different power states (Tick)
system.mem_ctrls.dram.rank0.pwrStateTime::ACT_PDN            0                       # Time in different power states (Tick)
system.mem_ctrls.dram.rank1.actEnergy         2092020                       # Energy for activate commands per rank (pJ) (Joule)
system.mem_ctrls.dram.rank1.preEnergy         1089165                       # Energy for precharge commands per rank (pJ) (Joule)
system.mem_ctrls.dram.rank1.readEnergy       18821040                       # Energy for read commands per rank (pJ) (Joule)
system.mem_ctrls.dram.rank1.writeEnergy       1795680                       # Energy for write commands per rank (pJ) (Joule)
system.mem_ctrls.dram.rank1.refreshEnergy 110020560.000000                       # Energy for refresh commands per rank (pJ) (Joule)
system.mem_ctrls.dram.rank1.actBackEnergy    349734330                       # Energy for active background per rank (pJ) (Joule)
system.mem_ctrls.dram.rank1.preBackEnergy    241503840                       # Energy for precharge background per rank (pJ) (Joule)
system.mem_ctrls.dram.rank1.actPowerDownEnergy            0                       # Energy for active power-down per rank (pJ) (Joule)
system.mem_ctrls.dram.rank1.prePowerDownEnergy            0                       # Energy for precharge power-down per rank (pJ) (Joule)
system.mem_ctrls.dram.rank1.selfRefreshEnergy            0                       # Energy for self refresh per rank (pJ) (Joule)
system.mem_ctrls.dram.rank1.totalEnergy     725056635                       # Total energy per rank (pJ) (Joule)
system.mem_ctrls.dram.rank1.averagePower   519.427124                       # Core power per rank (mW) (Watt)
system.mem_ctrls.dram.rank1.totalIdleTime            0                       # Total Idle time Per DRAM Rank (Tick)
system.mem_ctrls.dram.rank1.pwrStateTime::IDLE    623815000                       # Time in different power states (Tick)
system.mem_ctrls.dram.rank1.pwrStateTime::REF     46540000                       # Time in different power states (Tick)
system.mem_ctrls.dram.rank1.pwrStateTime::SREF            0                       # Time in different power states (Tick)
system.mem_ctrls.dram.rank1.pwrStateTime::PRE_PDN            0                       # Time in different power states (Tick)
system.mem_ctrls.dram.rank1.pwrStateTime::ACT    725522500                       # Time in different power states (Tick)
system.mem_ctrls.dram.rank1.pwrStateTime::ACT_PDN            0                       # Time in different power states (Tick)
system.mem_ctrls.power_state.pwrStateResidencyTicks::UNDEFINED   1395877500                       # Cumulative time (in ticks) in various power states (Tick)
system.membus.transDist::ReadResp                4682                       # Transaction distribution (Count)
system.membus.transDist::WritebackDirty          4610                       # Transaction distribution (Count)
system.membus.transDist::WritebackClean           223                       # Transaction distribution (Count)
system.membus.transDist::CleanEvict              2453                       # Transaction distribution (Count)
system.membus.transDist::ReadExReq               3040                       # Transaction distribution (Count)
system.membus.transDist::ReadExResp              3040                       # Transaction distribution (Count)
system.membus.transDist::ReadCleanReq             663                       # Transaction distribution (Count)
system.membus.transDist::ReadSharedReq           4020                       # Transaction distribution (Count)
system.membus.transDist::InvalidateReq            259                       # Transaction distribution (Count)
system.membus.pktCount_system.cpu.icache.mem_side_port::system.mem_ctrls.port         1548                       # Packet count per connected requestor and responder (Count)
system.membus.pktCount_system.cpu.dcache.mem_side_port::system.mem_ctrls.port        21442                       # Packet count per connected requestor and responder (Count)
system.membus.pktCount::total                   22990                       # Packet count per connected requestor and responder (Count)
system.membus.pktSize_system.cpu.icache.mem_side_port::system.mem_ctrls.port        56640                       # Cumulative packet size per connected requestor and responder (Byte)
system.membus.pktSize_system.cpu.dcache.mem_side_port::system.mem_ctrls.port       746880                       # Cumulative packet size per connected requestor and responder (Byte)
system.membus.pktSize::total                   803520                       # Cumulative packet size per connected requestor and responder (Byte)
system.membus.snoops                                0                       # Total snoops (Count)
system.membus.snoopTraffic                          0                       # Total snoop traffic (Byte)
system.membus.snoopFanout::samples               7982                       # Request fanout histogram (Count)
system.membus.snoopFanout::mean              0.000251                       # Request fanout histogram (Count)
system.membus.snoopFanout::stdev             0.015828                       # Request fanout histogram (Count)
system.membus.snoopFanout::underflows               0      0.00%      0.00% # Request fanout histogram (Count)
system.membus.snoopFanout::0                     7980     99.97%     99.97% # Request fanout histogram (Count)
system.membus.snoopFanout::1                        2      0.03%    100.00% # Request fanout histogram (Count)
system.membus.snoopFanout::2                        0      0.00%    100.00% # Request fanout histogram (Count)
system.membus.snoopFanout::overflows                0      0.00%    100.00% # Request fanout histogram (Count)
system.membus.snoopFanout::min_value                0                       # Request fanout histogram (Count)
system.membus.snoopFanout::max_value                1                       # Request fanout histogram (Count)
system.membus.snoopFanout::total                 7982                       # Request fanout histogram (Count)
system.membus.power_state.pwrStateResidencyTicks::UNDEFINED   1395877500                       # Cumulative time (in ticks) in various power states (Tick)
system.membus.reqLayer0.occupancy            36049500                       # Layer occupancy (ticks) (Tick)
system.membus.reqLayer0.utilization               0.0                       # Layer utilization (Ratio)
system.membus.respLayer1.occupancy            3520250                       # Layer occupancy (ticks) (Tick)
system.membus.respLayer1.utilization              0.0                       # Layer utilization (Ratio)
system.membus.respLayer2.occupancy           36625500                       # Layer occupancy (ticks) (Tick)
system.membus.respLayer2.utilization              0.0                       # Layer utilization (Ratio)
system.membus.snoop_filter.totRequests          15268                       # Total number of requests made to the snoop filter. (Count)
system.membus.snoop_filter.hitSingleRequests         7287                       # Number of requests hitting in the snoop filter with a single holder of the requested data. (Count)
system.membus.snoop_filter.hitMultiRequests            1                       # Number of requests hitting in the snoop filter with multiple (>1) holders of the requested data. (Count)
system.membus.snoop_filter.totSnoops                0                       # Total number of snoops made to the snoop filter. (Count)
system.membus.snoop_filter.hitSingleSnoops            0                       # Number of snoops hitting in the snoop filter with a single holder of the requested data. (Count)
system.membus.snoop_filter.hitMultiSnoops            0                       # Number of snoops hitting in the snoop filter with multiple (>1) holders of the requested data. (Count)
system.voltage_domain.voltage                       1                       # Voltage in Volts (Volt)
system.workload.inst.arm                            0                       # number of arm instructions executed (Count)
system.workload.inst.quiesce                        0                       # number of quiesce instructions executed (Count)

---------- End Simulation Statistics   ----------
