
---------- Begin Simulation Statistics ----------
simSeconds                                   0.001492                       # Number of seconds simulated (Second)
simTicks                                   1491656500                       # Number of ticks simulated (Tick)
finalTick                                  1491656500                       # Number of ticks from beginning of simulation (restored from checkpoints and never reset) (Tick)
simFreq                                  1000000000000                       # The number of ticks per simulated second ((Tick/Second))
hostSeconds                                     12.62                       # Real time elapsed on the host (Second)
hostTickRate                                118215154                       # The number of ticks simulated per host second (ticks/s) ((Tick/Second))
hostMemory                                     671432                       # Number of bytes of host memory used (Byte)
simInsts                                      4846742                       # Number of instructions simulated (Count)
simOps                                        5375320                       # Number of ops (including micro ops) simulated (Count)
hostInstRate                                   384106                       # Simulator instruction rate (inst/s) ((Count/Second))
hostOpRate                                     425996                       # Simulator op (including micro ops) rate (op/s) ((Count/Second))
system.clk_domain.clock                          1000                       # Clock period in ticks (Tick)
system.cpu.numCycles                          2983314                       # Number of cpu cycles simulated (Cycle)
system.cpu.numWorkItemsStarted                      0                       # Number of work items this cpu started (Count)
system.cpu.numWorkItemsCompleted                    0                       # Number of work items this cpu completed (Count)
system.cpu.instsAdded                         6288512                       # Number of instructions added to the IQ (excludes non-spec) (Count)
system.cpu.nonSpecInstsAdded                     2148                       # Number of non-speculative instructions added to the IQ (Count)
system.cpu.instsIssued                        5943927                       # Number of instructions issued (Count)
system.cpu.squashedInstsIssued                   5650                       # Number of squashed instructions issued (Count)
system.cpu.squashedInstsExamined               915339                       # Number of squashed instructions iterated over during squash; mainly for profiling (Count)
system.cpu.squashedOperandsExamined            644695                       # Number of squashed operands that are examined and possibly removed from graph (Count)
system.cpu.squashedNonSpecRemoved                  41                       # Number of squashed non-spec instructions that were removed (Count)
system.cpu.numIssuedDist::samples             2943542                       # Number of insts issued each cycle (Count)
system.cpu.numIssuedDist::mean               2.019311                       # Number of insts issued each cycle (Count)
system.cpu.numIssuedDist::stdev              2.148208                       # Number of insts issued each cycle (Count)
system.cpu.numIssuedDist::underflows                0      0.00%      0.00% # Number of insts issued each cycle (Count)
system.cpu.numIssuedDist::0                   1111226     37.75%     37.75% # Number of insts issued each cycle (Count)
system.cpu.numIssuedDist::1                    361584     12.28%     50.04% # Number of insts issued each cycle (Count)
system.cpu.numIssuedDist::2                    407055     13.83%     63.86% # Number of insts issued each cycle (Count)
system.cpu.numIssuedDist::3                    321048     10.91%     74.77% # Number of insts issued each cycle (Count)
system.cpu.numIssuedDist::4                    318551     10.82%     85.59% # Number of insts issued each cycle (Count)
system.cpu.numIssuedDist::5                    190946      6.49%     92.08% # Number of insts issued each cycle (Count)
system.cpu.numIssuedDist::6                    124924      4.24%     96.32% # Number of insts issued each cycle (Count)
system.cpu.numIssuedDist::7                     39053      1.33%     97.65% # Number of insts issued each cycle (Count)
system.cpu.numIssuedDist::8                     69155      2.35%    100.00% # Number of insts issued each cycle (Count)
system.cpu.numIssuedDist::overflows                 0      0.00%    100.00% # Number of insts issued each cycle (Count)
system.cpu.numIssuedDist::min_value                 0                       # Number of insts issued each cycle (Count)
system.cpu.numIssuedDist::max_value                 8                       # Number of insts issued each cycle (Count)
system.cpu.numIssuedDist::total               2943542                       # Number of insts issued each cycle (Count)
system.cpu.statFuBusy::No_OpClass                   0      0.00%      0.00% # attempts to use FU when none available (Count)
system.cpu.statFuBusy::IntAlu                   16501     10.74%     10.74% # attempts to use FU when none available (Count)
system.cpu.statFuBusy::IntMult                      0      0.00%     10.74% # attempts to use FU when none available (Count)
system.cpu.statFuBusy::IntDiv                       0      0.00%     10.74% # attempts to use FU when none available (Count)
system.cpu.statFuBusy::FloatAdd                     0      0.00%     10.74% # attempts to use FU when none available (Count)
system.cpu.statFuBusy::FloatCmp                     0      0.00%     10.74% # attempts to use FU when none available (Count)
system.cpu.statFuBusy::FloatCvt                     0      0.00%     10.74% # attempts to use FU when none available (Count)
system.cpu.statFuBusy::FloatMult                    0      0.00%     10.74% # attempts to use FU when none available (Count)
system.cpu.statFuBusy::FloatMultAcc                 0      0.00%     10.74% # attempts to use FU when none available (Count)
system.cpu.statFuBusy::FloatDiv                     0      0.00%     10.74% # attempts to use FU when none available (Count)
system.cpu.statFuBusy::FloatMisc                    0      0.00%     10.74% # attempts to use FU when none available (Count)
system.cpu.statFuBusy::FloatSqrt                    0      0.00%     10.74% # attempts to use FU when none available (Count)
system.cpu.statFuBusy::SimdAdd                      0      0.00%     10.74% # attempts to use FU when none available (Count)
system.cpu.statFuBusy::SimdAddAcc                   0      0.00%     10.74% # attempts to use FU when none available (Count)
system.cpu.statFuBusy::SimdAlu                    219      0.14%     10.88% # attempts to use FU when none available (Count)
system.cpu.statFuBusy::SimdCmp                    849      0.55%     11.43% # attempts to use FU when none available (Count)
system.cpu.statFuBusy::SimdCvt                      0      0.00%     11.43% # attempts to use FU when none available (Count)
system.cpu.statFuBusy::SimdMisc                     0      0.00%     11.43% # attempts to use FU when none available (Count)
system.cpu.statFuBusy::SimdMult                     0      0.00%     11.43% # attempts to use FU when none available (Count)
system.cpu.statFuBusy::SimdMultAcc                  0      0.00%     11.43% # attempts to use FU when none available (Count)
system.cpu.statFuBusy::SimdShift                    0      0.00%     11.43% # attempts to use FU when none available (Count)
system.cpu.statFuBusy::SimdShiftAcc                 0      0.00%     11.43% # attempts to use FU when none available (Count)
system.cpu.statFuBusy::SimdDiv                      0      0.00%     11.43% # attempts to use FU when none available (Count)
system.cpu.statFuBusy::SimdSqrt                     0      0.00%     11.43% # attempts to use FU when none available (Count)
system.cpu.statFuBusy::SimdFloatAdd                 0      0.00%     11.43% # attempts to use FU when none available (Count)
system.cpu.statFuBusy::SimdFloatAlu                 0      0.00%     11.43% # attempts to use FU when none available (Count)
system.cpu.statFuBusy::SimdFloatCmp                 0      0.00%     11.43% # attempts to use FU when none available (Count)
system.cpu.statFuBusy::SimdFloatCvt                 0      0.00%     11.43% # attempts to use FU when none available (Count)
system.cpu.statFuBusy::SimdFloatDiv                 0      0.00%     11.43% # attempts to use FU when none available (Count)
system.cpu.statFuBusy::SimdFloatMisc                0      0.00%     11.43% # attempts to use FU when none available (Count)
system.cpu.statFuBusy::SimdFloatMult                0      0.00%     11.43% # attempts to use FU when none available (Count)
system.cpu.statFuBusy::SimdFloatMultAcc             0      0.00%     11.43% # attempts to use FU when none available (Count)
system.cpu.statFuBusy::SimdFloatSqrt                0      0.00%     11.43% # attempts to use FU when none available (Count)
system.cpu.statFuBusy::SimdReduceAdd                0      0.00%     11.43% # attempts to use FU when none available (Count)
system.cpu.statFuBusy::SimdReduceAlu                0      0.00%     11.43% # attempts to use FU when none available (Count)
system.cpu.statFuBusy::SimdReduceCmp                0      0.00%     11.43% # attempts to use FU when none available (Count)
system.cpu.statFuBusy::SimdFloatReduceAdd            0      0.00%     11.43% # attempts to use FU when none available (Count)
system.cpu.statFuBusy::SimdFloatReduceCmp            0      0.00%     11.43% # attempts to use FU when none available (Count)
system.cpu.statFuBusy::SimdAes                      0      0.00%     11.43% # attempts to use FU when none available (Count)
system.cpu.statFuBusy::SimdAesMix                   0      0.00%     11.43% # attempts to use FU when none available (Count)
system.cpu.statFuBusy::SimdSha1Hash                 0      0.00%     11.43% # attempts to use FU when none available (Count)
system.cpu.statFuBusy::SimdSha1Hash2                0      0.00%     11.43% # attempts to use FU when none available (Count)
system.cpu.statFuBusy::SimdSha256Hash               0      0.00%     11.43% # attempts to use FU when none available (Count)
system.cpu.statFuBusy::SimdSha256Hash2              0      0.00%     11.43% # attempts to use FU when none available (Count)
system.cpu.statFuBusy::SimdShaSigma2                0      0.00%     11.43% # attempts to use FU when none available (Count)
system.cpu.statFuBusy::SimdShaSigma3                0      0.00%     11.43% # attempts to use FU when none available (Count)
system.cpu.statFuBusy::SimdPredAlu                  0      0.00%     11.43% # attempts to use FU when none available (Count)
system.cpu.statFuBusy::MemRead                  88527     57.61%     69.05% # attempts to use FU when none available (Count)
system.cpu.statFuBusy::MemWrite                 47557     30.95%    100.00% # attempts to use FU when none available (Count)
system.cpu.statFuBusy::FloatMemRead                 0      0.00%    100.00% # attempts to use FU when none available (Count)
system.cpu.statFuBusy::FloatMemWrite                0      0.00%    100.00% # attempts to use FU when none available (Count)
system.cpu.statFuBusy::IprAccess                    0      0.00%    100.00% # attempts to use FU when none available (Count)
system.cpu.statFuBusy::InstPrefetch                 0      0.00%    100.00% # attempts to use FU when none available (Count)
system.cpu.statIssuedInstType_0::No_OpClass         9507      0.16%      0.16% # Number of instructions issued per FU type, per thread (Count)
system.cpu.statIssuedInstType_0::IntAlu       3533091     59.44%     59.60% # Number of instructions issued per FU type, per thread (Count)
system.cpu.statIssuedInstType_0::IntMult        58808      0.99%     60.59% # Number of instructions issued per FU type, per thread (Count)
system.cpu.statIssuedInstType_0::IntDiv             3      0.00%     60.59% # Number of instructions issued per FU type, per thread (Count)
system.cpu.statIssuedInstType_0::FloatAdd            0      0.00%     60.59% # Number of instructions issued per FU type, per thread (Count)
system.cpu.statIssuedInstType_0::FloatCmp            0      0.00%     60.59% # Number of instructions issued per FU type, per thread (Count)
system.cpu.statIssuedInstType_0::FloatCvt            0      0.00%     60.59% # Number of instructions issued per FU type, per thread (Count)
system.cpu.statIssuedInstType_0::FloatMult            0      0.00%     60.59% # Number of instructions issued per FU type, per thread (Count)
system.cpu.statIssuedInstType_0::FloatMultAcc            0      0.00%     60.59% # Number of instructions issued per FU type, per thread (Count)
system.cpu.statIssuedInstType_0::FloatDiv            0      0.00%     60.59% # Number of instructions issued per FU type, per thread (Count)
system.cpu.statIssuedInstType_0::FloatMisc            0      0.00%     60.59% # Number of instructions issued per FU type, per thread (Count)
system.cpu.statIssuedInstType_0::FloatSqrt            0      0.00%     60.59% # Number of instructions issued per FU type, per thread (Count)
system.cpu.statIssuedInstType_0::SimdAdd        20399      0.34%     60.93% # Number of instructions issued per FU type, per thread (Count)
system.cpu.statIssuedInstType_0::SimdAddAcc            0      0.00%     60.93% # Number of instructions issued per FU type, per thread (Count)
system.cpu.statIssuedInstType_0::SimdAlu        39392      0.66%     61.60% # Number of instructions issued per FU type, per thread (Count)
system.cpu.statIssuedInstType_0::SimdCmp        37956      0.64%     62.23% # Number of instructions issued per FU type, per thread (Count)
system.cpu.statIssuedInstType_0::SimdCvt            0      0.00%     62.23% # Number of instructions issued per FU type, per thread (Count)
system.cpu.statIssuedInstType_0::SimdMisc        27330      0.46%     62.69% # Number of instructions issued per FU type, per thread (Count)
system.cpu.statIssuedInstType_0::SimdMult            0      0.00%     62.69% # Number of instructions issued per FU type, per thread (Count)
system.cpu.statIssuedInstType_0::SimdMultAcc            0      0.00%     62.69% # Number of instructions issued per FU type, per thread (Count)
system.cpu.statIssuedInstType_0::SimdShift            0      0.00%     62.69% # Number of instructions issued per FU type, per thread (Count)
system.cpu.statIssuedInstType_0::SimdShiftAcc            0      0.00%     62.69% # Number of instructions issued per FU type, per thread (Count)
system.cpu.statIssuedInstType_0::SimdDiv            0      0.00%     62.69% # Number of instructions issued per FU type, per thread (Count)
system.cpu.statIssuedInstType_0::SimdSqrt            0      0.00%     62.69% # Number of instructions issued per FU type, per thread (Count)
system.cpu.statIssuedInstType_0::SimdFloatAdd            0      0.00%     62.69% # Number of instructions issued per FU type, per thread (Count)
system.cpu.statIssuedInstType_0::SimdFloatAlu            0      0.00%     62.69% # Number of instructions issued per FU type, per thread (Count)
system.cpu.statIssuedInstType_0::SimdFloatCmp            0      0.00%     62.69% # Number of instructions issued per FU type, per thread (Count)
system.cpu.statIssuedInstType_0::SimdFloatCvt            0      0.00%     62.69% # Number of instructions issued per FU type, per thread (Count)
system.cpu.statIssuedInstType_0::SimdFloatDiv            0      0.00%     62.69% # Number of instructions issued per FU type, per thread (Count)
system.cpu.statIssuedInstType_0::SimdFloatMisc            0      0.00%     62.69% # Number of instructions issued per FU type, per thread (Count)
system.cpu.statIssuedInstType_0::SimdFloatMult            0      0.00%     62.69% # Number of instructions issued per FU type, per thread (Count)
system.cpu.statIssuedInstType_0::SimdFloatMultAcc            0      0.00%     62.69% # Number of instructions issued per FU type, per thread (Count)
system.cpu.statIssuedInstType_0::SimdFloatSqrt            0      0.00%     62.69% # Number of instructions issued per FU type, per thread (Count)
system.cpu.statIssuedInstType_0::SimdReduceAdd            0      0.00%     62.69% # Number of instructions issued per FU type, per thread (Count)
system.cpu.statIssuedInstType_0::SimdReduceAlu            0      0.00%     62.69% # Number of instructions issued per FU type, per thread (Count)
system.cpu.statIssuedInstType_0::SimdReduceCmp            0      0.00%     62.69% # Number of instructions issued per FU type, per thread (Count)
system.cpu.statIssuedInstType_0::SimdFloatReduceAdd            0      0.00%     62.69% # Number of instructions issued per FU type, per thread (Count)
system.cpu.statIssuedInstType_0::SimdFloatReduceCmp            0      0.00%     62.69% # Number of instructions issued per FU type, per thread (Count)
system.cpu.statIssuedInstType_0::SimdAes            0      0.00%     62.69% # Number of instructions issued per FU type, per thread (Count)
system.cpu.statIssuedInstType_0::SimdAesMix            0      0.00%     62.69% # Number of instructions issued per FU type, per thread (Count)
system.cpu.statIssuedInstType_0::SimdSha1Hash            0      0.00%     62.69% # Number of instructions issued per FU type, per thread (Count)
system.cpu.statIssuedInstType_0::SimdSha1Hash2            0      0.00%     62.69% # Number of instructions issued per FU type, per thread (Count)
system.cpu.statIssuedInstType_0::SimdSha256Hash            0      0.00%     62.69% # Number of instructions issued per FU type, per thread (Count)
system.cpu.statIssuedInstType_0::SimdSha256Hash2            0      0.00%     62.69% # Number of instructions issued per FU type, per thread (Count)
system.cpu.statIssuedInstType_0::SimdShaSigma2            0      0.00%     62.69% # Number of instructions issued per FU type, per thread (Count)
system.cpu.statIssuedInstType_0::SimdShaSigma3            0      0.00%     62.69% # Number of instructions issued per FU type, per thread (Count)
system.cpu.statIssuedInstType_0::SimdPredAlu            0      0.00%     62.69% # Number of instructions issued per FU type, per thread (Count)
system.cpu.statIssuedInstType_0::MemRead      1367208     23.00%     85.70% # Number of instructions issued per FU type, per thread (Count)
system.cpu.statIssuedInstType_0::MemWrite       850233     14.30%    100.00% # Number of instructions issued per FU type, per thread (Count)
system.cpu.statIssuedInstType_0::FloatMemRead            0      0.00%    100.00% # Number of instructions issued per FU type, per thread (Count)
system.cpu.statIssuedInstType_0::FloatMemWrite            0      0.00%    100.00% # Number of instructions issued per FU type, per thread (Count)
system.cpu.statIssuedInstType_0::IprAccess            0      0.00%    100.00% # Number of instructions issued per FU type, per thread (Count)
system.cpu.statIssuedInstType_0::InstPrefetch            0      0.00%    100.00% # Number of instructions issued per FU type, per thread (Count)
system.cpu.statIssuedInstType_0::total        5943927                       # Number of instructions issued per FU type, per thread (Count)
system.cpu.issueRate                         1.992391                       # Inst issue rate ((Count/Cycle))
system.cpu.fuBusy                              153653                       # FU busy when requested (Count)
system.cpu.fuBusyRate                        0.025850                       # FU busy rate (busy events/executed inst) ((Count/Count))
system.cpu.intInstQueueReads                 14605892                       # Number of integer instruction queue reads (Count)
system.cpu.intInstQueueWrites                 7009032                       # Number of integer instruction queue writes (Count)
system.cpu.intInstQueueWakeupAccesses         5691542                       # Number of integer instruction queue wakeup accesses (Count)
system.cpu.fpInstQueueReads                         0                       # Number of floating instruction queue reads (Count)
system.cpu.fpInstQueueWrites                        0                       # Number of floating instruction queue writes (Count)
system.cpu.fpInstQueueWakeupAccesses                0                       # Number of floating instruction queue wakeup accesses (Count)
system.cpu.vecInstQueueReads                   384807                       # Number of vector instruction queue reads (Count)
system.cpu.vecInstQueueWrites                  197216                       # Number of vector instruction queue writes (Count)
system.cpu.vecInstQueueWakeupAccesses          186485                       # Number of vector instruction queue wakeup accesses (Count)
system.cpu.intAluAccesses                     5900405                       # Number of integer alu accesses (Count)
system.cpu.fpAluAccesses                            0                       # Number of floating point alu accesses (Count)
system.cpu.vecAluAccesses                      187668                       # Number of vector alu accesses (Count)
system.cpu.numInsts                           5908755                       # Number of executed instructions (Count)
system.cpu.numLoadInsts                       1352718                       # Number of load instructions executed (Count)
system.cpu.numSquashedInsts                     35172                       # Number of squashed instructions skipped in execute (Count)
system.cpu.numSwp                                   0                       # Number of swp insts executed (Count)
system.cpu.numNop                               15616                       # Number of nop insts executed (Count)
system.cpu.numRefs                            2197159                       # Number of memory reference insts executed (Count)
system.cpu.numBranches                         826728                       # Number of branches executed (Count)
system.cpu.numStoreInsts                       844441                       # Number of stores executed (Count)
system.cpu.numRate                           1.980601                       # Inst execution rate ((Count/Cycle))
system.cpu.timesIdled                             478                       # Number of times that the entire CPU went into an idle state and unscheduled itself (Count)
system.cpu.idleCycles                           39772                       # Total number of cycles that the CPU has spent unscheduled due to idling (Cycle)
system.cpu.committedInsts                     4846742                       # Number of Instructions Simulated (Count)
system.cpu.committedOps                       5375320                       # Number of Ops (including micro ops) Simulated (Count)
system.cpu.cpi                               0.615530                       # CPI: Cycles Per Instruction ((Cycle/Count))
system.cpu.totalCpi                          0.615530                       # CPI: Total CPI of All Threads ((Cycle/Count))
system.cpu.ipc                               1.624617                       # IPC: Instructions Per Cycle ((Count/Cycle))
system.cpu.totalIpc                          1.624617                       # IPC: Total IPC of All Threads ((Count/Cycle))
system.cpu.intRegfileReads                    6929395                       # Number of integer regfile reads (Count)
system.cpu.intRegfileWrites                   4173702                       # Number of integer regfile writes (Count)
system.cpu.vecRegfileReads                     248843                       # number of vector regfile reads (Count)
system.cpu.vecRegfileWrites                    152245                       # number of vector regfile writes (Count)
system.cpu.ccRegfileReads                     1839327                       # number of cc regfile reads (Count)
system.cpu.ccRegfileWrites                    1705902                       # number of cc regfile writes (Count)
system.cpu.miscRegfileReads                  11797099                       # number of misc regfile reads (Count)
system.cpu.miscRegfileWrites                       45                       # number of misc regfile writes (Count)
system.cpu.MemDepUnit__0.insertedLoads        1490780                       # Number of loads inserted to the mem dependence unit. (Count)
system.cpu.MemDepUnit__0.insertedStores        928407                       # Number of stores inserted to the mem dependence unit. (Count)
system.cpu.MemDepUnit__0.conflictingLoads       578957                       # Number of conflicting loads. (Count)
system.cpu.MemDepUnit__0.conflictingStores       192302                       # Number of conflicting stores. (Count)
system.cpu.MemDepUnit__1.insertedLoads              0                       # Number of loads inserted to the mem dependence unit. (Count)
system.cpu.MemDepUnit__1.insertedStores             0                       # Number of stores inserted to the mem dependence unit. (Count)
system.cpu.MemDepUnit__1.conflictingLoads            0                       # Number of conflicting loads. (Count)
system.cpu.MemDepUnit__1.conflictingStores            0                       # Number of conflicting stores. (Count)
system.cpu.MemDepUnit__2.insertedLoads              0                       # Number of loads inserted to the mem dependence unit. (Count)
system.cpu.MemDepUnit__2.insertedStores             0                       # Number of stores inserted to the mem dependence unit. (Count)
system.cpu.MemDepUnit__2.conflictingLoads            0                       # Number of conflicting loads. (Count)
system.cpu.MemDepUnit__2.conflictingStores            0                       # Number of conflicting stores. (Count)
system.cpu.MemDepUnit__3.insertedLoads              0                       # Number of loads inserted to the mem dependence unit. (Count)
system.cpu.MemDepUnit__3.insertedStores             0                       # Number of stores inserted to the mem dependence unit. (Count)
system.cpu.MemDepUnit__3.conflictingLoads            0                       # Number of conflicting loads. (Count)
system.cpu.MemDepUnit__3.conflictingStores            0                       # Number of conflicting stores. (Count)
system.cpu.branchPred.lookups                  937581                       # Number of BP lookups (Count)
system.cpu.branchPred.condPredicted            719766                       # Number of conditional branches predicted (Count)
system.cpu.branchPred.condIncorrect             22038                       # Number of conditional branches incorrect (Count)
system.cpu.branchPred.BTBLookups               500457                       # Number of BTB lookups (Count)
system.cpu.branchPred.BTBHits                  495050                       # Number of BTB hits (Count)
system.cpu.branchPred.BTBHitRatio            0.989196                       # BTB Hit Ratio (Ratio)
system.cpu.branchPred.RASUsed                   68974                       # Number of times the RAS was used to get a target. (Count)
system.cpu.branchPred.RASIncorrect                  2                       # Number of incorrect RAS predictions. (Count)
system.cpu.branchPred.indirectLookups           12493                       # Number of indirect predictor lookups. (Count)
system.cpu.branchPred.indirectHits              12280                       # Number of indirect target hits. (Count)
system.cpu.branchPred.indirectMisses              213                       # Number of indirect misses. (Count)
system.cpu.branchPred.indirectMispredicted           70                       # Number of mispredicted indirect branches. (Count)
system.cpu.commit.commitSquashedInsts          918641                       # The number of squashed insts skipped by commit (Count)
system.cpu.commit.commitNonSpecStalls            2107                       # The number of times commit has been forced to stall to communicate backwards (Count)
system.cpu.commit.branchMispredicts             21705                       # The number of times a branch was mispredicted (Count)
system.cpu.commit.numCommittedDist::samples      2812210                       # Number of insts commited each cycle (Count)
system.cpu.commit.numCommittedDist::mean     1.915810                       # Number of insts commited each cycle (Count)
system.cpu.commit.numCommittedDist::stdev     2.698039                       # Number of insts commited each cycle (Count)
system.cpu.commit.numCommittedDist::underflows            0      0.00%      0.00% # Number of insts commited each cycle (Count)
system.cpu.commit.numCommittedDist::0         1370632     48.74%     48.74% # Number of insts commited each cycle (Count)
system.cpu.commit.numCommittedDist::1          416328     14.80%     63.54% # Number of insts commited each cycle (Count)
system.cpu.commit.numCommittedDist::2          312541     11.11%     74.66% # Number of insts commited each cycle (Count)
system.cpu.commit.numCommittedDist::3           70447      2.51%     77.16% # Number of insts commited each cycle (Count)
system.cpu.commit.numCommittedDist::4          170545      6.06%     83.23% # Number of insts commited each cycle (Count)
system.cpu.commit.numCommittedDist::5           38662      1.37%     84.60% # Number of insts commited each cycle (Count)
system.cpu.commit.numCommittedDist::6           78496      2.79%     87.39% # Number of insts commited each cycle (Count)
system.cpu.commit.numCommittedDist::7           48030      1.71%     89.10% # Number of insts commited each cycle (Count)
system.cpu.commit.numCommittedDist::8          306529     10.90%    100.00% # Number of insts commited each cycle (Count)
system.cpu.commit.numCommittedDist::overflows            0      0.00%    100.00% # Number of insts commited each cycle (Count)
system.cpu.commit.numCommittedDist::min_value            0                       # Number of insts commited each cycle (Count)
system.cpu.commit.numCommittedDist::max_value            8                       # Number of insts commited each cycle (Count)
system.cpu.commit.numCommittedDist::total      2812210                       # Number of insts commited each cycle (Count)
system.cpu.commit.instsCommitted              4859081                       # Number of instructions committed (Count)
system.cpu.commit.opsCommitted                5387659                       # Number of ops (including micro ops) committed (Count)
system.cpu.commit.memRefs                     1928804                       # Number of memory references committed (Count)
system.cpu.commit.loads                       1164917                       # Number of loads committed (Count)
system.cpu.commit.amos                             14                       # Number of atomic instructions committed (Count)
system.cpu.commit.membars                          18                       # Number of memory barriers committed (Count)
system.cpu.commit.branches                     786964                       # Number of branches committed (Count)
system.cpu.commit.vectorInstructions           184574                       # Number of committed Vector instructions. (Count)
system.cpu.commit.floating                          0                       # Number of committed floating point instructions. (Count)
system.cpu.commit.integer                     4759112                       # Number of committed integer instructions. (Count)
system.cpu.commit.functionCalls                 57544                       # Number of function calls committed. (Count)
system.cpu.commit.committedInstType_0::No_OpClass         9394      0.17%      0.17% # Class of committed instruction (Count)
system.cpu.commit.committedInstType_0::IntAlu      3267747     60.65%     60.83% # Class of committed instruction (Count)
system.cpu.commit.committedInstType_0::IntMult        58153      1.08%     61.91% # Class of committed instruction (Count)
system.cpu.commit.committedInstType_0::IntDiv            3      0.00%     61.91% # Class of committed instruction (Count)
system.cpu.commit.committedInstType_0::FloatAdd            0      0.00%     61.91% # Class of committed instruction (Count)
system.cpu.commit.committedInstType_0::FloatCmp            0      0.00%     61.91% # Class of committed instruction (Count)
system.cpu.commit.committedInstType_0::FloatCvt            0      0.00%     61.91% # Class of committed instruction (Count)
system.cpu.commit.committedInstType_0::FloatMult            0      0.00%     61.91% # Class of committed instruction (Count)
system.cpu.commit.committedInstType_0::FloatMultAcc            0      0.00%     61.91% # Class of committed instruction (Count)
system.cpu.commit.committedInstType_0::FloatDiv            0      0.00%     61.91% # Class of committed instruction (Count)
system.cpu.commit.committedInstType_0::FloatMisc            0      0.00%     61.91% # Class of committed instruction (Count)
system.cpu.commit.committedInstType_0::FloatSqrt            0      0.00%     61.91% # Class of committed instruction (Count)
system.cpu.commit.committedInstType_0::SimdAdd        20098      0.37%     62.28% # Class of committed instruction (Count)
system.cpu.commit.committedInstType_0::SimdAddAcc            0      0.00%     62.28% # Class of committed instruction (Count)
system.cpu.commit.committedInstType_0::SimdAlu        38843      0.72%     63.00% # Class of committed instruction (Count)
system.cpu.commit.committedInstType_0::SimdCmp        37504      0.70%     63.70% # Class of committed instruction (Count)
system.cpu.commit.committedInstType_0::SimdCvt            0      0.00%     63.70% # Class of committed instruction (Count)
system.cpu.commit.committedInstType_0::SimdMisc        27113      0.50%     64.20% # Class of committed instruction (Count)
system.cpu.commit.committedInstType_0::SimdMult            0      0.00%     64.20% # Class of committed instruction (Count)
system.cpu.commit.committedInstType_0::SimdMultAcc            0      0.00%     64.20% # Class of committed instruction (Count)
system.cpu.commit.committedInstType_0::SimdShift            0      0.00%     64.20% # Class of committed instruction (Count)
system.cpu.commit.committedInstType_0::SimdShiftAcc            0      0.00%     64.20% # Class of committed instruction (Count)
system.cpu.commit.committedInstType_0::SimdDiv            0      0.00%     64.20% # Class of committed instruction (Count)
system.cpu.commit.committedInstType_0::SimdSqrt            0      0.00%     64.20% # Class of committed instruction (Count)
system.cpu.commit.committedInstType_0::SimdFloatAdd            0      0.00%     64.20% # Class of committed instruction (Count)
system.cpu.commit.committedInstType_0::SimdFloatAlu            0      0.00%     64.20% # Class of committed instruction (Count)
system.cpu.commit.committedInstType_0::SimdFloatCmp            0      0.00%     64.20% # Class of committed instruction (Count)
system.cpu.commit.committedInstType_0::SimdFloatCvt            0      0.00%     64.20% # Class of committed instruction (Count)
system.cpu.commit.committedInstType_0::SimdFloatDiv            0      0.00%     64.20% # Class of committed instruction (Count)
system.cpu.commit.committedInstType_0::SimdFloatMisc            0      0.00%     64.20% # Class of committed instruction (Count)
system.cpu.commit.committedInstType_0::SimdFloatMult            0      0.00%     64.20% # Class of committed instruction (Count)
system.cpu.commit.committedInstType_0::SimdFloatMultAcc            0      0.00%     64.20% # Class of committed instruction (Count)
system.cpu.commit.committedInstType_0::SimdFloatSqrt            0      0.00%     64.20% # Class of committed instruction (Count)
system.cpu.commit.committedInstType_0::SimdReduceAdd            0      0.00%     64.20% # Class of committed instruction (Count)
system.cpu.commit.committedInstType_0::SimdReduceAlu            0      0.00%     64.20% # Class of committed instruction (Count)
system.cpu.commit.committedInstType_0::SimdReduceCmp            0      0.00%     64.20% # Class of committed instruction (Count)
system.cpu.commit.committedInstType_0::SimdFloatReduceAdd            0      0.00%     64.20% # Class of committed instruction (Count)
system.cpu.commit.committedInstType_0::SimdFloatReduceCmp            0      0.00%     64.20% # Class of committed instruction (Count)
system.cpu.commit.committedInstType_0::SimdAes            0      0.00%     64.20% # Class of committed instruction (Count)
system.cpu.commit.committedInstType_0::SimdAesMix            0      0.00%     64.20% # Class of committed instruction (Count)
system.cpu.commit.committedInstType_0::SimdSha1Hash            0      0.00%     64.20% # Class of committed instruction (Count)
system.cpu.commit.committedInstType_0::SimdSha1Hash2            0      0.00%     64.20% # Class of committed instruction (Count)
system.cpu.commit.committedInstType_0::SimdSha256Hash            0      0.00%     64.20% # Class of committed instruction (Count)
system.cpu.commit.committedInstType_0::SimdSha256Hash2            0      0.00%     64.20% # Class of committed instruction (Count)
system.cpu.commit.committedInstType_0::SimdShaSigma2            0      0.00%     64.20% # Class of committed instruction (Count)
system.cpu.commit.committedInstType_0::SimdShaSigma3            0      0.00%     64.20% # Class of committed instruction (Count)
system.cpu.commit.committedInstType_0::SimdPredAlu            0      0.00%     64.20% # Class of committed instruction (Count)
system.cpu.commit.committedInstType_0::MemRead      1164917     21.62%     85.82% # Class of committed instruction (Count)
system.cpu.commit.committedInstType_0::MemWrite       763887     14.18%    100.00% # Class of committed instruction (Count)
system.cpu.commit.committedInstType_0::FloatMemRead            0      0.00%    100.00% # Class of committed instruction (Count)
system.cpu.commit.committedInstType_0::FloatMemWrite            0      0.00%    100.00% # Class of committed instruction (Count)
system.cpu.commit.committedInstType_0::IprAccess            0      0.00%    100.00% # Class of committed instruction (Count)
system.cpu.commit.committedInstType_0::InstPrefetch            0      0.00%    100.00% # Class of committed instruction (Count)
system.cpu.commit.committedInstType_0::total      5387659                       # Class of committed instruction (Count)
system.cpu.commit.commitEligibleSamples        306529                       # number cycles where commit BW limit reached (Cycle)
system.cpu.dcache.demandHits::cpu.data        1692618                       # number of demand (read+write) hits (Count)
system.cpu.dcache.demandHits::total           1692618                       # number of demand (read+write) hits (Count)
system.cpu.dcache.overallHits::cpu.data       1692622                       # number of overall hits (Count)
system.cpu.dcache.overallHits::total          1692622                       # number of overall hits (Count)
system.cpu.dcache.demandMisses::cpu.data        37350                       # number of demand (read+write) misses (Count)
system.cpu.dcache.demandMisses::total           37350                       # number of demand (read+write) misses (Count)
system.cpu.dcache.overallMisses::cpu.data        37352                       # number of overall misses (Count)
system.cpu.dcache.overallMisses::total          37352                       # number of overall misses (Count)
system.cpu.dcache.demandMissLatency::cpu.data   1746080256                       # number of demand (read+write) miss ticks (Tick)
system.cpu.dcache.demandMissLatency::total   1746080256                       # number of demand (read+write) miss ticks (Tick)
system.cpu.dcache.overallMissLatency::cpu.data   1746080256                       # number of overall miss ticks (Tick)
system.cpu.dcache.overallMissLatency::total   1746080256                       # number of overall miss ticks (Tick)
system.cpu.dcache.demandAccesses::cpu.data      1729968                       # number of demand (read+write) accesses (Count)
system.cpu.dcache.demandAccesses::total       1729968                       # number of demand (read+write) accesses (Count)
system.cpu.dcache.overallAccesses::cpu.data      1729974                       # number of overall (read+write) accesses (Count)
system.cpu.dcache.overallAccesses::total      1729974                       # number of overall (read+write) accesses (Count)
system.cpu.dcache.demandMissRate::cpu.data     0.021590                       # miss rate for demand accesses (Ratio)
system.cpu.dcache.demandMissRate::total      0.021590                       # miss rate for demand accesses (Ratio)
system.cpu.dcache.overallMissRate::cpu.data     0.021591                       # miss rate for overall accesses (Ratio)
system.cpu.dcache.overallMissRate::total     0.021591                       # miss rate for overall accesses (Ratio)
system.cpu.dcache.demandAvgMissLatency::cpu.data 46749.136707                       # average overall miss latency ((Cycle/Count))
system.cpu.dcache.demandAvgMissLatency::total 46749.136707                       # average overall miss latency ((Cycle/Count))
system.cpu.dcache.overallAvgMissLatency::cpu.data 46746.633540                       # average overall miss latency ((Cycle/Count))
system.cpu.dcache.overallAvgMissLatency::total 46746.633540                       # average overall miss latency ((Cycle/Count))
system.cpu.dcache.blockedCycles::no_mshrs         4839                       # number of cycles access was blocked (Cycle)
system.cpu.dcache.blockedCycles::no_targets          224                       # number of cycles access was blocked (Cycle)
system.cpu.dcache.blockedCauses::no_mshrs          314                       # number of times access was blocked (Count)
system.cpu.dcache.blockedCauses::no_targets            7                       # number of times access was blocked (Count)
system.cpu.dcache.avgBlocked::no_mshrs      15.410828                       # average number of cycles each access was blocked ((Cycle/Count))
system.cpu.dcache.avgBlocked::no_targets           32                       # average number of cycles each access was blocked ((Cycle/Count))
system.cpu.dcache.writebacks::writebacks         6650                       # number of writebacks (Count)
system.cpu.dcache.writebacks::total              6650                       # number of writebacks (Count)
system.cpu.dcache.demandMshrHits::cpu.data        27054                       # number of demand (read+write) MSHR hits (Count)
system.cpu.dcache.demandMshrHits::total         27054                       # number of demand (read+write) MSHR hits (Count)
system.cpu.dcache.overallMshrHits::cpu.data        27054                       # number of overall MSHR hits (Count)
system.cpu.dcache.overallMshrHits::total        27054                       # number of overall MSHR hits (Count)
system.cpu.dcache.demandMshrMisses::cpu.data        10296                       # number of demand (read+write) MSHR misses (Count)
system.cpu.dcache.demandMshrMisses::total        10296                       # number of demand (read+write) MSHR misses (Count)
system.cpu.dcache.overallMshrMisses::cpu.data        10298                       # number of overall MSHR misses (Count)
system.cpu.dcache.overallMshrMisses::total        10298                       # number of overall MSHR misses (Count)
system.cpu.dcache.demandMshrMissLatency::cpu.data    501863782                       # number of demand (read+write) MSHR miss ticks (Tick)
system.cpu.dcache.demandMshrMissLatency::total    501863782                       # number of demand (read+write) MSHR miss ticks (Tick)
system.cpu.dcache.overallMshrMissLatency::cpu.data    502020782                       # number of overall MSHR miss ticks (Tick)
system.cpu.dcache.overallMshrMissLatency::total    502020782                       # number of overall MSHR miss ticks (Tick)
system.cpu.dcache.demandMshrMissRate::cpu.data     0.005952                       # mshr miss ratio for demand accesses (Ratio)
system.cpu.dcache.demandMshrMissRate::total     0.005952                       # mshr miss ratio for demand accesses (Ratio)
system.cpu.dcache.overallMshrMissRate::cpu.data     0.005953                       # mshr miss ratio for overall accesses (Ratio)
system.cpu.dcache.overallMshrMissRate::total     0.005953                       # mshr miss ratio for overall accesses (Ratio)
system.cpu.dcache.demandAvgMshrMissLatency::cpu.data 48743.568570                       # average overall mshr miss latency ((Cycle/Count))
system.cpu.dcache.demandAvgMshrMissLatency::total 48743.568570                       # average overall mshr miss latency ((Cycle/Count))
system.cpu.dcache.overallAvgMshrMissLatency::cpu.data 48749.347640                       # average overall mshr miss latency ((Cycle/Count))
system.cpu.dcache.overallAvgMshrMissLatency::total 48749.347640                       # average overall mshr miss latency ((Cycle/Count))
system.cpu.dcache.replacements                  10172                       # number of replacements (Count)
system.cpu.dcache.LoadLockedReq.hits::cpu.data            6                       # number of LoadLockedReq hits (Count)
system.cpu.dcache.LoadLockedReq.hits::total            6                       # number of LoadLockedReq hits (Count)
system.cpu.dcache.LoadLockedReq.misses::cpu.data            2                       # number of LoadLockedReq misses (Count)
system.cpu.dcache.LoadLockedReq.misses::total            2                       # number of LoadLockedReq misses (Count)
system.cpu.dcache.LoadLockedReq.missLatency::cpu.data       129500                       # number of LoadLockedReq miss ticks (Tick)
system.cpu.dcache.LoadLockedReq.missLatency::total       129500                       # number of LoadLockedReq miss ticks (Tick)
system.cpu.dcache.LoadLockedReq.accesses::cpu.data            8                       # number of LoadLockedReq accesses(hits+misses) (Count)
system.cpu.dcache.LoadLockedReq.accesses::total            8                       # number of LoadLockedReq accesses(hits+misses) (Count)
system.cpu.dcache.LoadLockedReq.missRate::cpu.data     0.250000                       # miss rate for LoadLockedReq accesses (Ratio)
system.cpu.dcache.LoadLockedReq.missRate::total     0.250000                       # miss rate for LoadLockedReq accesses (Ratio)
system.cpu.dcache.LoadLockedReq.avgMissLatency::cpu.data        64750                       # average LoadLockedReq miss latency ((Tick/Count))
system.cpu.dcache.LoadLockedReq.avgMissLatency::total        64750                       # average LoadLockedReq miss latency ((Tick/Count))
system.cpu.dcache.LoadLockedReq.mshrMisses::cpu.data            2                       # number of LoadLockedReq MSHR misses (Count)
system.cpu.dcache.LoadLockedReq.mshrMisses::total            2                       # number of LoadLockedReq MSHR misses (Count)
system.cpu.dcache.LoadLockedReq.mshrMissLatency::cpu.data       127500                       # number of LoadLockedReq MSHR miss ticks (Tick)
system.cpu.dcache.LoadLockedReq.mshrMissLatency::total       127500                       # number of LoadLockedReq MSHR miss ticks (Tick)
system.cpu.dcache.LoadLockedReq.mshrMissRate::cpu.data     0.250000                       # mshr miss rate for LoadLockedReq accesses (Ratio)
system.cpu.dcache.LoadLockedReq.mshrMissRate::total     0.250000                       # mshr miss rate for LoadLockedReq accesses (Ratio)
system.cpu.dcache.LoadLockedReq.avgMshrMissLatency::cpu.data        63750                       # average LoadLockedReq mshr miss latency ((Tick/Count))
system.cpu.dcache.LoadLockedReq.avgMshrMissLatency::total        63750                       # average LoadLockedReq mshr miss latency ((Tick/Count))
system.cpu.dcache.ReadReq.hits::cpu.data       948511                       # number of ReadReq hits (Count)
system.cpu.dcache.ReadReq.hits::total          948511                       # number of ReadReq hits (Count)
system.cpu.dcache.ReadReq.misses::cpu.data        17588                       # number of ReadReq misses (Count)
system.cpu.dcache.ReadReq.misses::total         17588                       # number of ReadReq misses (Count)
system.cpu.dcache.ReadReq.missLatency::cpu.data    842762500                       # number of ReadReq miss ticks (Tick)
system.cpu.dcache.ReadReq.missLatency::total    842762500                       # number of ReadReq miss ticks (Tick)
system.cpu.dcache.ReadReq.accesses::cpu.data       966099                       # number of ReadReq accesses(hits+misses) (Count)
system.cpu.dcache.ReadReq.accesses::total       966099                       # number of ReadReq accesses(hits+misses) (Count)
system.cpu.dcache.ReadReq.missRate::cpu.data     0.018205                       # miss rate for ReadReq accesses (Ratio)
system.cpu.dcache.ReadReq.missRate::total     0.018205                       # miss rate for ReadReq accesses (Ratio)
system.cpu.dcache.ReadReq.avgMissLatency::cpu.data 47916.903571                       # average ReadReq miss latency ((Tick/Count))
system.cpu.dcache.ReadReq.avgMissLatency::total 47916.903571                       # average ReadReq miss latency ((Tick/Count))
system.cpu.dcache.ReadReq.mshrHits::cpu.data        11803                       # number of ReadReq MSHR hits (Count)
system.cpu.dcache.ReadReq.mshrHits::total        11803                       # number of ReadReq MSHR hits (Count)
system.cpu.dcache.ReadReq.mshrMisses::cpu.data         5785                       # number of ReadReq MSHR misses (Count)
system.cpu.dcache.ReadReq.mshrMisses::total         5785                       # number of ReadReq MSHR misses (Count)
system.cpu.dcache.ReadReq.mshrMissLatency::cpu.data    332650500                       # number of ReadReq MSHR miss ticks (Tick)
system.cpu.dcache.ReadReq.mshrMissLatency::total    332650500                       # number of ReadReq MSHR miss ticks (Tick)
system.cpu.dcache.ReadReq.mshrMissRate::cpu.data     0.005988                       # mshr miss rate for ReadReq accesses (Ratio)
system.cpu.dcache.ReadReq.mshrMissRate::total     0.005988                       # mshr miss rate for ReadReq accesses (Ratio)
system.cpu.dcache.ReadReq.avgMshrMissLatency::cpu.data 57502.247191                       # average ReadReq mshr miss latency ((Tick/Count))
system.cpu.dcache.ReadReq.avgMshrMissLatency::total 57502.247191                       # average ReadReq mshr miss latency ((Tick/Count))
system.cpu.dcache.SoftPFReq.hits::cpu.data            4                       # number of SoftPFReq hits (Count)
system.cpu.dcache.SoftPFReq.hits::total             4                       # number of SoftPFReq hits (Count)
system.cpu.dcache.SoftPFReq.misses::cpu.data            2                       # number of SoftPFReq misses (Count)
system.cpu.dcache.SoftPFReq.misses::total            2                       # number of SoftPFReq misses (Count)
system.cpu.dcache.SoftPFReq.accesses::cpu.data            6                       # number of SoftPFReq accesses(hits+misses) (Count)
system.cpu.dcache.SoftPFReq.accesses::total            6                       # number of SoftPFReq accesses(hits+misses) (Count)
system.cpu.dcache.SoftPFReq.missRate::cpu.data     0.333333                       # miss rate for SoftPFReq accesses (Ratio)
system.cpu.dcache.SoftPFReq.missRate::total     0.333333                       # miss rate for SoftPFReq accesses (Ratio)
system.cpu.dcache.SoftPFReq.mshrMisses::cpu.data            2                       # number of SoftPFReq MSHR misses (Count)
system.cpu.dcache.SoftPFReq.mshrMisses::total            2                       # number of SoftPFReq MSHR misses (Count)
system.cpu.dcache.SoftPFReq.mshrMissLatency::cpu.data       157000                       # number of SoftPFReq MSHR miss ticks (Tick)
system.cpu.dcache.SoftPFReq.mshrMissLatency::total       157000                       # number of SoftPFReq MSHR miss ticks (Tick)
system.cpu.dcache.SoftPFReq.mshrMissRate::cpu.data     0.333333                       # mshr miss rate for SoftPFReq accesses (Ratio)
system.cpu.dcache.SoftPFReq.mshrMissRate::total     0.333333                       # mshr miss rate for SoftPFReq accesses (Ratio)
system.cpu.dcache.SoftPFReq.avgMshrMissLatency::cpu.data        78500                       # average SoftPFReq mshr miss latency ((Tick/Count))
system.cpu.dcache.SoftPFReq.avgMshrMissLatency::total        78500                       # average SoftPFReq mshr miss latency ((Tick/Count))
system.cpu.dcache.StoreCondReq.hits::cpu.data            4                       # number of StoreCondReq hits (Count)
system.cpu.dcache.StoreCondReq.hits::total            4                       # number of StoreCondReq hits (Count)
system.cpu.dcache.StoreCondReq.accesses::cpu.data            4                       # number of StoreCondReq accesses(hits+misses) (Count)
system.cpu.dcache.StoreCondReq.accesses::total            4                       # number of StoreCondReq accesses(hits+misses) (Count)
system.cpu.dcache.SwapReq.hits::cpu.data           13                       # number of SwapReq hits (Count)
system.cpu.dcache.SwapReq.hits::total              13                       # number of SwapReq hits (Count)
system.cpu.dcache.SwapReq.misses::cpu.data            1                       # number of SwapReq misses (Count)
system.cpu.dcache.SwapReq.misses::total             1                       # number of SwapReq misses (Count)
system.cpu.dcache.SwapReq.missLatency::cpu.data        46000                       # number of SwapReq miss ticks (Tick)
system.cpu.dcache.SwapReq.missLatency::total        46000                       # number of SwapReq miss ticks (Tick)
system.cpu.dcache.SwapReq.accesses::cpu.data           14                       # number of SwapReq accesses(hits+misses) (Count)
system.cpu.dcache.SwapReq.accesses::total           14                       # number of SwapReq accesses(hits+misses) (Count)
system.cpu.dcache.SwapReq.missRate::cpu.data     0.071429                       # miss rate for SwapReq accesses (Ratio)
system.cpu.dcache.SwapReq.missRate::total     0.071429                       # miss rate for SwapReq accesses (Ratio)
system.cpu.dcache.SwapReq.avgMissLatency::cpu.data        46000                       # average SwapReq miss latency ((Tick/Count))
system.cpu.dcache.SwapReq.avgMissLatency::total        46000                       # average SwapReq miss latency ((Tick/Count))
system.cpu.dcache.SwapReq.mshrHits::cpu.data            1                       # number of SwapReq MSHR hits (Count)
system.cpu.dcache.SwapReq.mshrHits::total            1                       # number of SwapReq MSHR hits (Count)
system.cpu.dcache.WriteLineReq.misses::cpu.data          257                       # number of WriteLineReq misses (Count)
system.cpu.dcache.WriteLineReq.misses::total          257                       # number of WriteLineReq misses (Count)
system.cpu.dcache.WriteLineReq.missLatency::cpu.data      3518784                       # number of WriteLineReq miss ticks (Tick)
system.cpu.dcache.WriteLineReq.missLatency::total      3518784                       # number of WriteLineReq miss ticks (Tick)
system.cpu.dcache.WriteLineReq.accesses::cpu.data          257                       # number of WriteLineReq accesses(hits+misses) (Count)
system.cpu.dcache.WriteLineReq.accesses::total          257                       # number of WriteLineReq accesses(hits+misses) (Count)
system.cpu.dcache.WriteLineReq.missRate::cpu.data            1                       # miss rate for WriteLineReq accesses (Ratio)
system.cpu.dcache.WriteLineReq.missRate::total            1                       # miss rate for WriteLineReq accesses (Ratio)
system.cpu.dcache.WriteLineReq.avgMissLatency::cpu.data 13691.766537                       # average WriteLineReq miss latency ((Tick/Count))
system.cpu.dcache.WriteLineReq.avgMissLatency::total 13691.766537                       # average WriteLineReq miss latency ((Tick/Count))
system.cpu.dcache.WriteLineReq.mshrMisses::cpu.data          257                       # number of WriteLineReq MSHR misses (Count)
system.cpu.dcache.WriteLineReq.mshrMisses::total          257                       # number of WriteLineReq MSHR misses (Count)
system.cpu.dcache.WriteLineReq.mshrMissLatency::cpu.data      3261784                       # number of WriteLineReq MSHR miss ticks (Tick)
system.cpu.dcache.WriteLineReq.mshrMissLatency::total      3261784                       # number of WriteLineReq MSHR miss ticks (Tick)
system.cpu.dcache.WriteLineReq.mshrMissRate::cpu.data            1                       # mshr miss rate for WriteLineReq accesses (Ratio)
system.cpu.dcache.WriteLineReq.mshrMissRate::total            1                       # mshr miss rate for WriteLineReq accesses (Ratio)
system.cpu.dcache.WriteLineReq.avgMshrMissLatency::cpu.data 12691.766537                       # average WriteLineReq mshr miss latency ((Tick/Count))
system.cpu.dcache.WriteLineReq.avgMshrMissLatency::total 12691.766537                       # average WriteLineReq mshr miss latency ((Tick/Count))
system.cpu.dcache.WriteReq.hits::cpu.data       744107                       # number of WriteReq hits (Count)
system.cpu.dcache.WriteReq.hits::total         744107                       # number of WriteReq hits (Count)
system.cpu.dcache.WriteReq.misses::cpu.data        19505                       # number of WriteReq misses (Count)
system.cpu.dcache.WriteReq.misses::total        19505                       # number of WriteReq misses (Count)
system.cpu.dcache.WriteReq.missLatency::cpu.data    899798972                       # number of WriteReq miss ticks (Tick)
system.cpu.dcache.WriteReq.missLatency::total    899798972                       # number of WriteReq miss ticks (Tick)
system.cpu.dcache.WriteReq.accesses::cpu.data       763612                       # number of WriteReq accesses(hits+misses) (Count)
system.cpu.dcache.WriteReq.accesses::total       763612                       # number of WriteReq accesses(hits+misses) (Count)
system.cpu.dcache.WriteReq.missRate::cpu.data     0.025543                       # miss rate for WriteReq accesses (Ratio)
system.cpu.dcache.WriteReq.missRate::total     0.025543                       # miss rate for WriteReq accesses (Ratio)
system.cpu.dcache.WriteReq.avgMissLatency::cpu.data 46131.708382                       # average WriteReq miss latency ((Tick/Count))
system.cpu.dcache.WriteReq.avgMissLatency::total 46131.708382                       # average WriteReq miss latency ((Tick/Count))
system.cpu.dcache.WriteReq.mshrHits::cpu.data        15251                       # number of WriteReq MSHR hits (Count)
system.cpu.dcache.WriteReq.mshrHits::total        15251                       # number of WriteReq MSHR hits (Count)
system.cpu.dcache.WriteReq.mshrMisses::cpu.data         4254                       # number of WriteReq MSHR misses (Count)
system.cpu.dcache.WriteReq.mshrMisses::total         4254                       # number of WriteReq MSHR misses (Count)
system.cpu.dcache.WriteReq.mshrMissLatency::cpu.data    165951498                       # number of WriteReq MSHR miss ticks (Tick)
system.cpu.dcache.WriteReq.mshrMissLatency::total    165951498                       # number of WriteReq MSHR miss ticks (Tick)
system.cpu.dcache.WriteReq.mshrMissRate::cpu.data     0.005571                       # mshr miss rate for WriteReq accesses (Ratio)
system.cpu.dcache.WriteReq.mshrMissRate::total     0.005571                       # mshr miss rate for WriteReq accesses (Ratio)
system.cpu.dcache.WriteReq.avgMshrMissLatency::cpu.data 39010.695346                       # average WriteReq mshr miss latency ((Tick/Count))
system.cpu.dcache.WriteReq.avgMshrMissLatency::total 39010.695346                       # average WriteReq mshr miss latency ((Tick/Count))
system.cpu.dcache.power_state.pwrStateResidencyTicks::UNDEFINED   1491656500                       # Cumulative time (in ticks) in various power states (Tick)
system.cpu.dcache.tags.tagsInUse           127.405861                       # Average ticks per tags in use ((Tick/Count))
system.cpu.dcache.tags.totalRefs              1702945                       # Total number of references to valid blocks. (Count)
system.cpu.dcache.tags.sampledRefs              10300                       # Sample count of references to valid blocks. (Count)
system.cpu.dcache.tags.avgRefs             165.334466                       # Average number of references to valid blocks. ((Count/Count))
system.cpu.dcache.tags.warmupTick              145000                       # The tick when the warmup percentage was hit. (Tick)
system.cpu.dcache.tags.occupancies::cpu.data   127.405861                       # Average occupied blocks per tick, per requestor ((Count/Tick))
system.cpu.dcache.tags.avgOccs::cpu.data     0.995358                       # Average percentage of cache occupancy ((Ratio/Tick))
system.cpu.dcache.tags.avgOccs::total        0.995358                       # Average percentage of cache occupancy ((Ratio/Tick))
system.cpu.dcache.tags.occupanciesTaskId::1024          128                       # Occupied blocks per task id (Count)
system.cpu.dcache.tags.ageTaskId_1024::0           73                       # Occupied blocks per task id, per block age (Count)
system.cpu.dcache.tags.ageTaskId_1024::1           55                       # Occupied blocks per task id, per block age (Count)
system.cpu.dcache.tags.ratioOccsTaskId::1024            1                       # Ratio of occupied blocks and all blocks, per task id (Ratio)
system.cpu.dcache.tags.tagAccesses            3470300                       # Number of tag accesses (Count)
system.cpu.dcache.tags.dataAccesses           3470300                       # Number of data accesses (Count)
system.cpu.dcache.tags.power_state.pwrStateResidencyTicks::UNDEFINED   1491656500                       # Cumulative time (in ticks) in various power states (Tick)
system.cpu.decode.idleCycles                   613429                       # Number of cycles decode is idle (Cycle)
system.cpu.decode.blockedCycles               1150800                       # Number of cycles decode is blocked (Cycle)
system.cpu.decode.runCycles                   1055000                       # Number of cycles decode is running (Cycle)
system.cpu.decode.unblockCycles                100323                       # Number of cycles decode is unblocking (Cycle)
system.cpu.decode.squashCycles                  23990                       # Number of cycles decode is squashing (Cycle)
system.cpu.decode.branchResolved               471913                       # Number of times decode resolved a branch (Count)
system.cpu.decode.branchMispred                   345                       # Number of times decode detected a branch misprediction (Count)
system.cpu.decode.decodedInsts                6502063                       # Number of instructions handled by decode (Count)
system.cpu.decode.squashedInsts                  1241                       # Number of squashed instructions handled by decode (Count)
system.cpu.fetch.icacheStallCycles             867289                       # Number of cycles fetch is stalled on an Icache miss (Cycle)
system.cpu.fetch.insts                        6256306                       # Number of instructions fetch has processed (Count)
system.cpu.fetch.branches                      937581                       # Number of branches that fetch encountered (Count)
system.cpu.fetch.predictedBranches             576304                       # Number of branches that fetch has predicted taken (Count)
system.cpu.fetch.cycles                       2051538                       # Number of cycles fetch has run and was not squashing or blocked (Cycle)
system.cpu.fetch.squashCycles                   48646                       # Number of cycles fetch has spent squashing (Cycle)
system.cpu.fetch.miscStallCycles                  255                       # Number of cycles fetch has spent waiting on interrupts, or bad addresses, or out of MSHRs (Cycle)
system.cpu.fetch.icacheWaitRetryStallCycles          137                       # Number of stall cycles due to full MSHR (Cycle)
system.cpu.fetch.cacheLines                    841288                       # Number of cache lines fetched (Count)
system.cpu.fetch.icacheSquashes                  8798                       # Number of outstanding Icache misses that were squashed (Count)
system.cpu.fetch.nisnDist::samples            2943542                       # Number of instructions fetched each cycle (Total) (Count)
system.cpu.fetch.nisnDist::mean              2.326450                       # Number of instructions fetched each cycle (Total) (Count)
system.cpu.fetch.nisnDist::stdev             3.113091                       # Number of instructions fetched each cycle (Total) (Count)
system.cpu.fetch.nisnDist::underflows               0      0.00%      0.00% # Number of instructions fetched each cycle (Total) (Count)
system.cpu.fetch.nisnDist::0                  1613793     54.82%     54.82% # Number of instructions fetched each cycle (Total) (Count)
system.cpu.fetch.nisnDist::1                   157885      5.36%     60.19% # Number of instructions fetched each cycle (Total) (Count)
system.cpu.fetch.nisnDist::2                   160820      5.46%     65.65% # Number of instructions fetched each cycle (Total) (Count)
system.cpu.fetch.nisnDist::3                   121821      4.14%     69.79% # Number of instructions fetched each cycle (Total) (Count)
system.cpu.fetch.nisnDist::4                   113852      3.87%     73.66% # Number of instructions fetched each cycle (Total) (Count)
system.cpu.fetch.nisnDist::5                   141532      4.81%     78.47% # Number of instructions fetched each cycle (Total) (Count)
system.cpu.fetch.nisnDist::6                    48337      1.64%     80.11% # Number of instructions fetched each cycle (Total) (Count)
system.cpu.fetch.nisnDist::7                   134091      4.56%     84.66% # Number of instructions fetched each cycle (Total) (Count)
system.cpu.fetch.nisnDist::8                   451411     15.34%    100.00% # Number of instructions fetched each cycle (Total) (Count)
system.cpu.fetch.nisnDist::overflows                0      0.00%    100.00% # Number of instructions fetched each cycle (Total) (Count)
system.cpu.fetch.nisnDist::min_value                0                       # Number of instructions fetched each cycle (Total) (Count)
system.cpu.fetch.nisnDist::max_value                8                       # Number of instructions fetched each cycle (Total) (Count)
system.cpu.fetch.nisnDist::total              2943542                       # Number of instructions fetched each cycle (Total) (Count)
system.cpu.fetch.branchRate                  0.314275                       # Number of branch fetches per cycle (Ratio)
system.cpu.fetch.rate                        2.097099                       # Number of inst fetches per cycle ((Count/Cycle))
system.cpu.icache.demandHits::cpu.inst         840376                       # number of demand (read+write) hits (Count)
system.cpu.icache.demandHits::total            840376                       # number of demand (read+write) hits (Count)
system.cpu.icache.overallHits::cpu.inst        840376                       # number of overall hits (Count)
system.cpu.icache.overallHits::total           840376                       # number of overall hits (Count)
system.cpu.icache.demandMisses::cpu.inst          910                       # number of demand (read+write) misses (Count)
system.cpu.icache.demandMisses::total             910                       # number of demand (read+write) misses (Count)
system.cpu.icache.overallMisses::cpu.inst          910                       # number of overall misses (Count)
system.cpu.icache.overallMisses::total            910                       # number of overall misses (Count)
system.cpu.icache.demandMissLatency::cpu.inst     55900495                       # number of demand (read+write) miss ticks (Tick)
system.cpu.icache.demandMissLatency::total     55900495                       # number of demand (read+write) miss ticks (Tick)
system.cpu.icache.overallMissLatency::cpu.inst     55900495                       # number of overall miss ticks (Tick)
system.cpu.icache.overallMissLatency::total     55900495                       # number of overall miss ticks (Tick)
system.cpu.icache.demandAccesses::cpu.inst       841286                       # number of demand (read+write) accesses (Count)
system.cpu.icache.demandAccesses::total        841286                       # number of demand (read+write) accesses (Count)
system.cpu.icache.overallAccesses::cpu.inst       841286                       # number of overall (read+write) accesses (Count)
system.cpu.icache.overallAccesses::total       841286                       # number of overall (read+write) accesses (Count)
system.cpu.icache.demandMissRate::cpu.inst     0.001082                       # miss rate for demand accesses (Ratio)
system.cpu.icache.demandMissRate::total      0.001082                       # miss rate for demand accesses (Ratio)
system.cpu.icache.overallMissRate::cpu.inst     0.001082                       # miss rate for overall accesses (Ratio)
system.cpu.icache.overallMissRate::total     0.001082                       # miss rate for overall accesses (Ratio)
system.cpu.icache.demandAvgMissLatency::cpu.inst 61429.115385                       # average overall miss latency ((Cycle/Count))
system.cpu.icache.demandAvgMissLatency::total 61429.115385                       # average overall miss latency ((Cycle/Count))
system.cpu.icache.overallAvgMissLatency::cpu.inst 61429.115385                       # average overall miss latency ((Cycle/Count))
system.cpu.icache.overallAvgMissLatency::total 61429.115385                       # average overall miss latency ((Cycle/Count))
system.cpu.icache.blockedCycles::no_mshrs         1532                       # number of cycles access was blocked (Cycle)
system.cpu.icache.blockedCycles::no_targets            0                       # number of cycles access was blocked (Cycle)
system.cpu.icache.blockedCauses::no_mshrs           18                       # number of times access was blocked (Count)
system.cpu.icache.blockedCauses::no_targets            0                       # number of times access was blocked (Count)
system.cpu.icache.avgBlocked::no_mshrs      85.111111                       # average number of cycles each access was blocked ((Cycle/Count))
system.cpu.icache.avgBlocked::no_targets          nan                       # average number of cycles each access was blocked ((Cycle/Count))
system.cpu.icache.writebacks::writebacks          226                       # number of writebacks (Count)
system.cpu.icache.writebacks::total               226                       # number of writebacks (Count)
system.cpu.icache.demandMshrHits::cpu.inst          243                       # number of demand (read+write) MSHR hits (Count)
system.cpu.icache.demandMshrHits::total           243                       # number of demand (read+write) MSHR hits (Count)
system.cpu.icache.overallMshrHits::cpu.inst          243                       # number of overall MSHR hits (Count)
system.cpu.icache.overallMshrHits::total          243                       # number of overall MSHR hits (Count)
system.cpu.icache.demandMshrMisses::cpu.inst          667                       # number of demand (read+write) MSHR misses (Count)
system.cpu.icache.demandMshrMisses::total          667                       # number of demand (read+write) MSHR misses (Count)
system.cpu.icache.overallMshrMisses::cpu.inst          667                       # number of overall MSHR misses (Count)
system.cpu.icache.overallMshrMisses::total          667                       # number of overall MSHR misses (Count)
system.cpu.icache.demandMshrMissLatency::cpu.inst     43559997                       # number of demand (read+write) MSHR miss ticks (Tick)
system.cpu.icache.demandMshrMissLatency::total     43559997                       # number of demand (read+write) MSHR miss ticks (Tick)
system.cpu.icache.overallMshrMissLatency::cpu.inst     43559997                       # number of overall MSHR miss ticks (Tick)
system.cpu.icache.overallMshrMissLatency::total     43559997                       # number of overall MSHR miss ticks (Tick)
system.cpu.icache.demandMshrMissRate::cpu.inst     0.000793                       # mshr miss ratio for demand accesses (Ratio)
system.cpu.icache.demandMshrMissRate::total     0.000793                       # mshr miss ratio for demand accesses (Ratio)
system.cpu.icache.overallMshrMissRate::cpu.inst     0.000793                       # mshr miss ratio for overall accesses (Ratio)
system.cpu.icache.overallMshrMissRate::total     0.000793                       # mshr miss ratio for overall accesses (Ratio)
system.cpu.icache.demandAvgMshrMissLatency::cpu.inst 65307.341829                       # average overall mshr miss latency ((Cycle/Count))
system.cpu.icache.demandAvgMshrMissLatency::total 65307.341829                       # average overall mshr miss latency ((Cycle/Count))
system.cpu.icache.overallAvgMshrMissLatency::cpu.inst 65307.341829                       # average overall mshr miss latency ((Cycle/Count))
system.cpu.icache.overallAvgMshrMissLatency::total 65307.341829                       # average overall mshr miss latency ((Cycle/Count))
system.cpu.icache.replacements                    226                       # number of replacements (Count)
system.cpu.icache.ReadReq.hits::cpu.inst       840376                       # number of ReadReq hits (Count)
system.cpu.icache.ReadReq.hits::total          840376                       # number of ReadReq hits (Count)
system.cpu.icache.ReadReq.misses::cpu.inst          910                       # number of ReadReq misses (Count)
system.cpu.icache.ReadReq.misses::total           910                       # number of ReadReq misses (Count)
system.cpu.icache.ReadReq.missLatency::cpu.inst     55900495                       # number of ReadReq miss ticks (Tick)
system.cpu.icache.ReadReq.missLatency::total     55900495                       # number of ReadReq miss ticks (Tick)
system.cpu.icache.ReadReq.accesses::cpu.inst       841286                       # number of ReadReq accesses(hits+misses) (Count)
system.cpu.icache.ReadReq.accesses::total       841286                       # number of ReadReq accesses(hits+misses) (Count)
system.cpu.icache.ReadReq.missRate::cpu.inst     0.001082                       # miss rate for ReadReq accesses (Ratio)
system.cpu.icache.ReadReq.missRate::total     0.001082                       # miss rate for ReadReq accesses (Ratio)
system.cpu.icache.ReadReq.avgMissLatency::cpu.inst 61429.115385                       # average ReadReq miss latency ((Tick/Count))
system.cpu.icache.ReadReq.avgMissLatency::total 61429.115385                       # average ReadReq miss latency ((Tick/Count))
system.cpu.icache.ReadReq.mshrHits::cpu.inst          243                       # number of ReadReq MSHR hits (Count)
system.cpu.icache.ReadReq.mshrHits::total          243                       # number of ReadReq MSHR hits (Count)
system.cpu.icache.ReadReq.mshrMisses::cpu.inst          667                       # number of ReadReq MSHR misses (Count)
system.cpu.icache.ReadReq.mshrMisses::total          667                       # number of ReadReq MSHR misses (Count)
system.cpu.icache.ReadReq.mshrMissLatency::cpu.inst     43559997                       # number of ReadReq MSHR miss ticks (Tick)
system.cpu.icache.ReadReq.mshrMissLatency::total     43559997                       # number of ReadReq MSHR miss ticks (Tick)
system.cpu.icache.ReadReq.mshrMissRate::cpu.inst     0.000793                       # mshr miss rate for ReadReq accesses (Ratio)
system.cpu.icache.ReadReq.mshrMissRate::total     0.000793                       # mshr miss rate for ReadReq accesses (Ratio)
system.cpu.icache.ReadReq.avgMshrMissLatency::cpu.inst 65307.341829                       # average ReadReq mshr miss latency ((Tick/Count))
system.cpu.icache.ReadReq.avgMshrMissLatency::total 65307.341829                       # average ReadReq mshr miss latency ((Tick/Count))
system.cpu.icache.power_state.pwrStateResidencyTicks::UNDEFINED   1491656500                       # Cumulative time (in ticks) in various power states (Tick)
system.cpu.icache.tags.tagsInUse           374.782509                       # Average ticks per tags in use ((Tick/Count))
system.cpu.icache.tags.totalRefs               841042                       # Total number of references to valid blocks. (Count)
system.cpu.icache.tags.sampledRefs                666                       # Sample count of references to valid blocks. (Count)
system.cpu.icache.tags.avgRefs            1262.825826                       # Average number of references to valid blocks. ((Count/Count))
system.cpu.icache.tags.warmupTick               77000                       # The tick when the warmup percentage was hit. (Tick)
system.cpu.icache.tags.occupancies::cpu.inst   374.782509                       # Average occupied blocks per tick, per requestor ((Count/Tick))
system.cpu.icache.tags.avgOccs::cpu.inst     0.731997                       # Average percentage of cache occupancy ((Ratio/Tick))
system.cpu.icache.tags.avgOccs::total        0.731997                       # Average percentage of cache occupancy ((Ratio/Tick))
system.cpu.icache.tags.occupanciesTaskId::1024          440                       # Occupied blocks per task id (Count)
system.cpu.icache.tags.ageTaskId_1024::0          116                       # Occupied blocks per task id, per block age (Count)
system.cpu.icache.tags.ageTaskId_1024::1           10                       # Occupied blocks per task id, per block age (Count)
system.cpu.icache.tags.ageTaskId_1024::2           84                       # Occupied blocks per task id, per block age (Count)
system.cpu.icache.tags.ageTaskId_1024::3          230                       # Occupied blocks per task id, per block age (Count)
system.cpu.icache.tags.ratioOccsTaskId::1024     0.859375                       # Ratio of occupied blocks and all blocks, per task id (Ratio)
system.cpu.icache.tags.tagAccesses            1683238                       # Number of tag accesses (Count)
system.cpu.icache.tags.dataAccesses           1683238                       # Number of data accesses (Count)
system.cpu.icache.tags.power_state.pwrStateResidencyTicks::UNDEFINED   1491656500                       # Cumulative time (in ticks) in various power states (Tick)
system.cpu.iew.idleCycles                           0                       # Number of cycles IEW is idle (Cycle)
system.cpu.iew.squashCycles                     23990                       # Number of cycles IEW is squashing (Cycle)
system.cpu.iew.blockCycles                     125878                       # Number of cycles IEW is blocking (Cycle)
system.cpu.iew.unblockCycles                    47393                       # Number of cycles IEW is unblocking (Cycle)
system.cpu.iew.dispatchedInsts                6306276                       # Number of instructions dispatched to IQ (Count)
system.cpu.iew.dispSquashedInsts                 1731                       # Number of squashed instructions skipped by dispatch (Count)
system.cpu.iew.dispLoadInsts                  1490780                       # Number of dispatched load instructions (Count)
system.cpu.iew.dispStoreInsts                  928407                       # Number of dispatched store instructions (Count)
[...]
system.mem_ctrls.dram.bwRead::cpu.inst       28574943                       # Total read bandwidth from this memory ((Byte/Second))
system.mem_ctrls.dram.bwRead::cpu.data      430683606                       # Total read bandwidth from this memory ((Byte/Second))
system.mem_ctrls.dram.bwRead::total         459258549                       # Total read bandwidth from this memory ((Byte/Second))
system.mem_ctrls.dram.bwInstRead::cpu.inst     28574943                       # Instruction read bandwidth from this memory ((Byte/Second))
system.mem_ctrls.dram.bwInstRead::total      28574943                       # Instruction read bandwidth from this memory ((Byte/Second))
system.mem_ctrls.dram.bwWrite::writebacks    285320380                       # Write bandwidth from this memory ((Byte/Second))
system.mem_ctrls.dram.bwWrite::total        285320380                       # Write bandwidth from this memory ((Byte/Second))
system.mem_ctrls.dram.bwTotal::writebacks    285320380                       # Total bandwidth to/from this memory ((Byte/Second))
system.mem_ctrls.dram.bwTotal::cpu.inst      28574943                       # Total bandwidth to/from this memory ((Byte/Second))
system.mem_ctrls.dram.bwTotal::cpu.data     430683606                       # Total bandwidth to/from this memory ((Byte/Second))
system.mem_ctrls.dram.bwTotal::total        744578930                       # Total bandwidth to/from this memory ((Byte/Second))
system.mem_ctrls.dram.readBursts                 8133                       # Number of DRAM read bursts (Count)
system.mem_ctrls.dram.writeBursts                4466                       # Number of DRAM write bursts (Count)
system.mem_ctrls.dram.perBankRdBursts::0          240                       # Per bank write bursts (Count)
system.mem_ctrls.dram.perBankRdBursts::1          216                       # Per bank write bursts (Count)
system.mem_ctrls.dram.perBankRdBursts::2          754                       # Per bank write bursts (Count)
system.mem_ctrls.dram.perBankRdBursts::3          855                       # Per bank write bursts (Count)
system.mem_ctrls.dram.perBankRdBursts::4         1336                       # Per bank write bursts (Count)
system.mem_ctrls.dram.perBankRdBursts::5         1196                       # Per bank write bursts (Count)
system.mem_ctrls.dram.perBankRdBursts::6          350                       # Per bank write bursts (Count)
system.mem_ctrls.dram.perBankRdBursts::7          437                       # Per bank write bursts (Count)
system.mem_ctrls.dram.perBankRdBursts::8          276                       # Per bank write bursts (Count)
system.mem_ctrls.dram.perBankRdBursts::9           97                       # Per bank write bursts (Count)
system.mem_ctrls.dram.perBankRdBursts::10           57                       # Per bank write bursts (Count)
system.mem_ctrls.dram.perBankRdBursts::11           38                       # Per bank write bursts (Count)
system.mem_ctrls.dram.perBankRdBursts::12           36                       # Per bank write bursts (Count)
system.mem_ctrls.dram.perBankRdBursts::13           44                       # Per bank write bursts (Count)
system.mem_ctrls.dram.perBankRdBursts::14         2108                       # Per bank write bursts (Count)
system.mem_ctrls.dram.perBankRdBursts::15           93                       # Per bank write bursts (Count)
system.mem_ctrls.dram.perBankWrBursts::0           15                       # Per bank write bursts (Count)
system.mem_ctrls.dram.perBankWrBursts::1          103                       # Per bank write bursts (Count)
system.mem_ctrls.dram.perBankWrBursts::2          649                       # Per bank write bursts (Count)
system.mem_ctrls.dram.perBankWrBursts::3          720                       # Per bank write bursts (Count)
system.mem_ctrls.dram.perBankWrBursts::4         1056                       # Per bank write bursts (Count)
system.mem_ctrls.dram.perBankWrBursts::5          943                       # Per bank write bursts (Count)
system.mem_ctrls.dram.perBankWrBursts::6          339                       # Per bank write bursts (Count)
system.mem_ctrls.dram.perBankWrBursts::7          257                       # Per bank write bursts (Count)
system.mem_ctrls.dram.perBankWrBursts::8          257                       # Per bank write bursts (Count)
system.mem_ctrls.dram.perBankWrBursts::9           68                       # Per bank write bursts (Count)
system.mem_ctrls.dram.perBankWrBursts::10            0                       # Per bank write bursts (Count)
system.mem_ctrls.dram.perBankWrBursts::11           16                       # Per bank write bursts (Count)
system.mem_ctrls.dram.perBankWrBursts::12            0                       # Per bank write bursts (Count)
system.mem_ctrls.dram.perBankWrBursts::13            1                       # Per bank write bursts (Count)
system.mem_ctrls.dram.perBankWrBursts::14           14                       # Per bank write bursts (Count)
system.mem_ctrls.dram.perBankWrBursts::15           28                       # Per bank write bursts (Count)
system.mem_ctrls.dram.totQLat                77938250                       # Total ticks spent queuing (Tick)
system.mem_ctrls.dram.totBusLat              40665000                       # Total ticks spent in databus transfers (Tick)
system.mem_ctrls.dram.totMemAccLat          230432000                       # Total ticks spent from burst creation until serviced by the DRAM (Tick)
system.mem_ctrls.dram.avgQLat                 9582.96                       # Average queueing delay per DRAM burst ((Tick/Count))
system.mem_ctrls.dram.avgBusLat               5000.00                       # Average bus latency per DRAM burst ((Tick/Count))
system.mem_ctrls.dram.avgMemAccLat           28332.96                       # Average memory access latency per DRAM burst ((Tick/Count))
system.mem_ctrls.dram.readRowHits                7090                       # Number of row buffer hits during reads (Count)
system.mem_ctrls.dram.writeRowHits               4098                       # Number of row buffer hits during writes (Count)
system.mem_ctrls.dram.readRowHitRate            87.18                       # Row buffer hit rate for reads (Ratio)
system.mem_ctrls.dram.writeRowHitRate           91.76                       # Row buffer hit rate for writes (Ratio)
system.mem_ctrls.dram.bytesPerActivate::samples         1399                       # Bytes accessed per row activation (Byte)
system.mem_ctrls.dram.bytesPerActivate::mean   573.895640                       # Bytes accessed per row activation (Byte)
system.mem_ctrls.dram.bytesPerActivate::gmean   386.083653                       # Bytes accessed per row activation (Byte)
system.mem_ctrls.dram.bytesPerActivate::stdev   394.568862                       # Bytes accessed per row activation (Byte)
system.mem_ctrls.dram.bytesPerActivate::0-127          204     14.58%     14.58% # Bytes accessed per row activation (Byte)
system.mem_ctrls.dram.bytesPerActivate::128-255          233     16.65%     31.24% # Bytes accessed per row activation (Byte)
system.mem_ctrls.dram.bytesPerActivate::256-383          133      9.51%     40.74% # Bytes accessed per row activation (Byte)
system.mem_ctrls.dram.bytesPerActivate::384-511           97      6.93%     47.68% # Bytes accessed per row activation (Byte)
system.mem_ctrls.dram.bytesPerActivate::512-639           72      5.15%     52.82% # Bytes accessed per row activation (Byte)
system.mem_ctrls.dram.bytesPerActivate::640-767           47      3.36%     56.18% # Bytes accessed per row activation (Byte)
system.mem_ctrls.dram.bytesPerActivate::768-895           47      3.36%     59.54% # Bytes accessed per row activation (Byte)
system.mem_ctrls.dram.bytesPerActivate::896-1023          107      7.65%     67.19% # Bytes accessed per row activation (Byte)
system.mem_ctrls.dram.bytesPerActivate::1024-1151          459     32.81%    100.00% # Bytes accessed per row activation (Byte)
system.mem_ctrls.dram.bytesPerActivate::total         1399                       # Bytes accessed per row activation (Byte)
system.mem_ctrls.dram.bytesRead                520512                       # Total bytes read (Byte)
system.mem_ctrls.dram.bytesWritten             285824                       # Total bytes written (Byte)
system.mem_ctrls.dram.avgRdBW              348.948970                       # Average DRAM read bandwidth in MiBytes/s ((Byte/Second))
system.mem_ctrls.dram.avgWrBW              191.615161                       # Average DRAM write bandwidth in MiBytes/s ((Byte/Second))
system.mem_ctrls.dram.peakBW                 12800.00                       # Theoretical peak bandwidth in MiByte/s ((Byte/Second))
system.mem_ctrls.dram.busUtil                    4.22                       # Data bus utilization in percentage (Ratio)
system.mem_ctrls.dram.busUtilRead                2.73                       # Data bus utilization in percentage for reads (Ratio)
system.mem_ctrls.dram.busUtilWrite               1.50                       # Data bus utilization in percentage for writes (Ratio)
system.mem_ctrls.dram.pageHitRate               88.80                       # Row buffer hit rate, read and write combined (Ratio)
system.mem_ctrls.dram.power_state.pwrStateResidencyTicks::UNDEFINED   1491656500                       # Cumulative time (in ticks) in various power states (Tick)
system.mem_ctrls.dram.rank0.actEnergy         7804020                       # Energy for activate commands per rank (pJ) (Joule)
system.mem_ctrls.dram.rank0.preEnergy         4121370                       # Energy for precharge commands per rank (pJ) (Joule)
system.mem_ctrls.dram.rank0.readEnergy       38441760                       # Energy for read commands per rank (pJ) (Joule)
system.mem_ctrls.dram.rank0.writeEnergy      21276720                       # Energy for write commands per rank (pJ) (Joule)
system.mem_ctrls.dram.rank0.refreshEnergy 117396240.000000                       # Energy for refresh commands per rank (pJ) (Joule)
system.mem_ctrls.dram.rank0.actBackEnergy    572179680                       # Energy for active background per rank (pJ) (Joule)
system.mem_ctrls.dram.rank0.preBackEnergy     90960960                       # Energy for precharge background per rank (pJ) (Joule)
system.mem_ctrls.dram.rank0.actPowerDownEnergy            0                       # Energy for active power-down per rank (pJ) (Joule)
system.mem_ctrls.dram.rank0.prePowerDownEnergy            0                       # Energy for precharge power-down per rank (pJ) (Joule)
system.mem_ctrls.dram.rank0.selfRefreshEnergy            0                       # Energy for self refresh per rank (pJ) (Joule)
system.mem_ctrls.dram.rank0.totalEnergy     852180750                       # Total energy per rank (pJ) (Joule)
system.mem_ctrls.dram.rank0.averagePower   571.298251                       # Core power per rank (mW) (Watt)
system.mem_ctrls.dram.rank0.totalIdleTime            0                       # Total Idle time Per DRAM Rank (Tick)
system.mem_ctrls.dram.rank0.pwrStateTime::IDLE    231485500                       # Time in different power states (Tick)
system.mem_ctrls.dram.rank0.pwrStateTime::REF     49660000                       # Time in different power states (Tick)
system.mem_ctrls.dram.rank0.pwrStateTime::SREF            0                       # Time in different power states (Tick)
system.mem_ctrls.dram.rank0.pwrStateTime::PRE_PDN            0                       # Time in different power states (Tick)
system.mem_ctrls.dram.rank0.pwrStateTime::ACT   1210511000                       # Time in different power states (Tick)
system.mem_ctrls.dram.rank0.pwrStateTime::ACT_PDN            0                       # Time in different power states (Tick)
system.mem_ctrls.dram.rank1.actEnergy         2270520                       # Energy for activate commands per rank (pJ) (Joule)
system.mem_ctrls.dram.rank1.preEnergy         1176450                       # Energy for precharge commands per rank (pJ) (Joule)
system.mem_ctrls.dram.rank1.readEnergy       19627860                       # Energy for read commands per rank (pJ) (Joule)
system.mem_ctrls.dram.rank1.writeEnergy       2004480                       # Energy for write commands per rank (pJ) (Joule)
system.mem_ctrls.dram.rank1.refreshEnergy 117396240.000000                       # Energy for refresh commands per rank (pJ) (Joule)
system.mem_ctrls.dram.rank1.actBackEnergy    388861980                       # Energy for active background per rank (pJ) (Joule)
system.mem_ctrls.dram.rank1.preBackEnergy    245333760                       # Energy for precharge background per rank (pJ) (Joule)
system.mem_ctrls.dram.rank1.actPowerDownEnergy            0                       # Energy for active power-down per rank (pJ) (Joule)
system.mem_ctrls.dram.rank1.prePowerDownEnergy            0                       # Energy for precharge power-down per rank (pJ) (Joule)
system.mem_ctrls.dram.rank1.selfRefreshEnergy            0                       # Energy for self refresh per rank (pJ) (Joule)
system.mem_ctrls.dram.rank1.totalEnergy     776671290                       # Total energy per rank (pJ) (Joule)
system.mem_ctrls.dram.rank1.averagePower   520.677039                       # Core power per rank (mW) (Watt)
system.mem_ctrls.dram.rank1.totalIdleTime            0                       # Total Idle time Per DRAM Rank (Tick)
system.mem_ctrls.dram.rank1.pwrStateTime::IDLE    633386250                       # Time in different power states (Tick)
system.mem_ctrls.dram.rank1.pwrStateTime::REF     49660000                       # Time in different power states (Tick)
system.mem_ctrls.dram.rank1.pwrStateTime::SREF            0                       # Time in different power states (Tick)
system.mem_ctrls.dram.rank1.pwrStateTime::PRE_PDN            0                       # Time in different power states (Tick)
system.mem_ctrls.dram.rank1.pwrStateTime::ACT    808610250                       # Time in different power states (Tick)
system.mem_ctrls.dram.rank1.pwrStateTime::ACT_PDN            0                       # Time in different power states (Tick)
system.mem_ctrls.power_state.pwrStateResidencyTicks::UNDEFINED   1491656500                       # Cumulative time (in ticks) in various power states (Tick)
system.membus.transDist::ReadResp                6450                       # Transaction distribution (Count)
system.membus.transDist::WritebackDirty          6650                       # Transaction distribution (Count)
system.membus.transDist::WritebackClean           226                       # Transaction distribution (Count)
system.membus.transDist::CleanEvict              3522                       # Transaction distribution (Count)
system.membus.transDist::ReadExReq               4254                       # Transaction distribution (Count)
system.membus.transDist::ReadExResp              4254                       # Transaction distribution (Count)
system.membus.transDist::ReadCleanReq             667                       # Transaction distribution (Count)
system.membus.transDist::ReadSharedReq           5784                       # Transaction distribution (Count)
system.membus.transDist::InvalidateReq            262                       # Transaction distribution (Count)
system.membus.pktCount_system.cpu.icache.mem_side_port::system.mem_ctrls.port         1559                       # Packet count per connected requestor and responder (Count)
system.membus.pktCount_system.cpu.dcache.mem_side_port::system.mem_ctrls.port        30510                       # Packet count per connected requestor and responder (Count)
system.membus.pktCount::total                   32069                       # Packet count per connected requestor and responder (Count)
system.membus.pktSize_system.cpu.icache.mem_side_port::system.mem_ctrls.port        57088                       # Cumulative packet size per connected requestor and responder (Byte)
system.membus.pktSize_system.cpu.dcache.mem_side_port::system.mem_ctrls.port      1068032                       # Cumulative packet size per connected requestor and responder (Byte)
system.membus.pktSize::total                  1125120                       # Cumulative packet size per connected requestor and responder (Byte)
system.membus.snoops                                0                       # Total snoops (Count)
system.membus.snoopTraffic                          0                       # Total snoop traffic (Byte)
system.membus.snoopFanout::samples              10967                       # Request fanout histogram (Count)
system.membus.snoopFanout::mean              0.000182                       # Request fanout histogram (Count)
system.membus.snoopFanout::stdev             0.013504                       # Request fanout histogram (Count)
system.membus.snoopFanout::underflows               0      0.00%      0.00% # Request fanout histogram (Count)
system.membus.snoopFanout::0                    10965     99.98%     99.98% # Request fanout histogram (Count)
system.membus.snoopFanout::1                        2      0.02%    100.00% # Request fanout histogram (Count)
system.membus.snoopFanout::2                        0      0.00%    100.00% # Request fanout histogram (Count)
system.membus.snoopFanout::overflows                0      0.00%    100.00% # Request fanout histogram (Count)
system.membus.snoopFanout::min_value                0                       # Request fanout histogram (Count)
system.membus.snoopFanout::max_value                1                       # Request fanout histogram (Count)
system.membus.snoopFanout::total                10967                       # Request fanout histogram (Count)
system.membus.power_state.pwrStateResidencyTicks::UNDEFINED   1491656500                       # Cumulative time (in ticks) in various power states (Tick)
system.membus.reqLayer0.occupancy            51416000                       # Layer occupancy (ticks) (Tick)
system.membus.reqLayer0.utilization               0.0                       # Layer utilization (Ratio)
system.membus.respLayer1.occupancy            3552500                       # Layer occupancy (ticks) (Tick)
system.membus.respLayer1.utilization              0.0                       # Layer utilization (Ratio)
system.membus.respLayer2.occupancy           52272750                       # Layer occupancy (ticks) (Tick)
system.membus.respLayer2.utilization              0.0                       # Layer utilization (Ratio)
system.membus.snoop_filter.totRequests          21365                       # Total number of requests made to the snoop filter. (Count)
system.membus.snoop_filter.hitSingleRequests        10399                       # Number of requests hitting in the snoop filter with a single holder of the requested data. (Count)
system.membus.snoop_filter.hitMultiRequests            1                       # Number of requests hitting in the snoop filter with multiple (>1) holders of the requested data. (Count)
system.membus.snoop_filter.totSnoops                0                       # Total number of snoops made to the snoop filter. (Count)
system.membus.snoop_filter.hitSingleSnoops            0                       # Number of snoops hitting in the snoop filter with a single holder of the requested data. (Count)
system.membus.snoop_filter.hitMultiSnoops            0                       # Number of snoops hitting in the snoop filter with multiple (>1) holders of the requested data. (Count)
system.voltage_domain.voltage                       1                       # Voltage in Volts (Volt)
system.workload.inst.arm                            0                       # number of arm instructions executed (Count)
system.workload.inst.quiesce                        0                       # number of quiesce instructions executed (Count)

---------- End Simulation Statistics   ----------
