
---------- Begin Simulation Statistics ----------
simSeconds                                   0.020061                       # Number of seconds simulated (Second)
simTicks                                  20060657500                       # Number of ticks simulated (Tick)
finalTick                                 20060657500                       # Number of ticks from beginning of simulation (restored from checkpoints and never reset) (Tick)
simFreq                                  1000000000000                       # The number of ticks per simulated second ((Tick/Second))
hostSeconds                                    130.68                       # Real time elapsed on the host (Second)
hostTickRate                                153507805                       # The number of ticks simulated per host second (ticks/s) ((Tick/Second))
hostMemory                                     681000                       # Number of bytes of host memory used (Byte)
simInsts                                     82526788                       # Number of instructions simulated (Count)
simOps                                       90805032                       # Number of ops (including micro ops) simulated (Count)
hostInstRate                                   631510                       # Simulator instruction rate (inst/s) ((Count/Second))
hostOpRate                                     694856                       # Simulator op (including micro ops) rate (op/s) ((Count/Second))
system.clk_domain.clock                          1000                       # Clock period in ticks (Tick)
system.cpu.numCycles                         40121316                       # Number of cpu cycles simulated (Cycle)
system.cpu.numWorkItemsStarted                      0                       # Number of work items this cpu started (Count)
system.cpu.numWorkItemsCompleted                    0                       # Number of work items this cpu completed (Count)
system.cpu.instsAdded                        96825130                       # Number of instructions added to the IQ (excludes non-spec) (Count)
system.cpu.nonSpecInstsAdded                   196995                       # Number of non-speculative instructions added to the IQ (Count)
system.cpu.instsIssued                       96585437                       # Number of instructions issued (Count)
system.cpu.squashedInstsIssued                 268934                       # Number of squashed instructions issued (Count)
system.cpu.squashedInstsExamined              6217092                       # Number of squashed instructions iterated over during squash; mainly for profiling (Count)
system.cpu.squashedOperandsExamined           4782739                       # Number of squashed operands that are examined and possibly removed from graph (Count)
system.cpu.squashedNonSpecRemoved                 184                       # Number of squashed non-spec instructions that were removed (Count)
system.cpu.numIssuedDist::samples            39355382                       # Number of insts issued each cycle (Count)
system.cpu.numIssuedDist::mean               2.454186                       # Number of insts issued each cycle (Count)
system.cpu.numIssuedDist::stdev              2.214522                       # Number of insts issued each cycle (Count)
system.cpu.numIssuedDist::underflows                0      0.00%      0.00% # Number of insts issued each cycle (Count)
system.cpu.numIssuedDist::0                  10599674     26.93%     26.93% # Number of insts issued each cycle (Count)
system.cpu.numIssuedDist::1                   5271166     13.39%     40.33% # Number of insts issued each cycle (Count)
system.cpu.numIssuedDist::2                   6034663     15.33%     55.66% # Number of insts issued each cycle (Count)
system.cpu.numIssuedDist::3                   5924488     15.05%     70.71% # Number of insts issued each cycle (Count)
system.cpu.numIssuedDist::4                   4279071     10.87%     81.59% # Number of insts issued each cycle (Count)
system.cpu.numIssuedDist::5                   2344976      5.96%     87.55% # Number of insts issued each cycle (Count)
system.cpu.numIssuedDist::6                   2621253      6.66%     94.21% # Number of insts issued each cycle (Count)
system.cpu.numIssuedDist::7                   1337929      3.40%     97.61% # Number of insts issued each cycle (Count)
system.cpu.numIssuedDist::8                    942162      2.39%    100.00% # Number of insts issued each cycle (Count)
system.cpu.numIssuedDist::overflows                 0      0.00%    100.00% # Number of insts issued each cycle (Count)
system.cpu.numIssuedDist::min_value                 0                       # Number of insts issued each cycle (Count)
system.cpu.numIssuedDist::max_value                 8                       # Number of insts issued each cycle (Count)
system.cpu.numIssuedDist::total              39355382                       # Number of insts issued each cycle (Count)
system.cpu.statFuBusy::No_OpClass                   0      0.00%      0.00% # attempts to use FU when none available (Count)
system.cpu.statFuBusy::IntAlu                  363725     13.93%     13.93% # attempts to use FU when none available (Count)
system.cpu.statFuBusy::IntMult                 153900      5.89%     19.83% # attempts to use FU when none available (Count)
system.cpu.statFuBusy::IntDiv                       0      0.00%     19.83% # attempts to use FU when none available (Count)
system.cpu.statFuBusy::FloatAdd                     0      0.00%     19.83% # attempts to use FU when none available (Count)
system.cpu.statFuBusy::FloatCmp                     0      0.00%     19.83% # attempts to use FU when none available (Count)
system.cpu.statFuBusy::FloatCvt                     0      0.00%     19.83% # attempts to use FU when none available (Count)
system.cpu.statFuBusy::FloatMult                    0      0.00%     19.83% # attempts to use FU when none available (Count)
system.cpu.statFuBusy::FloatMultAcc                 0      0.00%     19.83% # attempts to use FU when none available (Count)
system.cpu.statFuBusy::FloatDiv                     0      0.00%     19.83% # attempts to use FU when none available (Count)
system.cpu.statFuBusy::FloatMisc                    0      0.00%     19.83% # attempts to use FU when none available (Count)
system.cpu.statFuBusy::FloatSqrt                    0      0.00%     19.83% # attempts to use FU when none available (Count)
system.cpu.statFuBusy::SimdAdd                      0      0.00%     19.83% # attempts to use FU when none available (Count)
system.cpu.statFuBusy::SimdAddAcc                   0      0.00%     19.83% # attempts to use FU when none available (Count)
system.cpu.statFuBusy::SimdAlu                      1      0.00%     19.83% # attempts to use FU when none available (Count)
system.cpu.statFuBusy::SimdCmp                      4      0.00%     19.83% # attempts to use FU when none available (Count)
system.cpu.statFuBusy::SimdCvt                      0      0.00%     19.83% # attempts to use FU when none available (Count)
system.cpu.statFuBusy::SimdMisc                     0      0.00%     19.83% # attempts to use FU when none available (Count)
system.cpu.statFuBusy::SimdMult                     0      0.00%     19.83% # attempts to use FU when none available (Count)
system.cpu.statFuBusy::SimdMultAcc                  0      0.00%     19.83% # attempts to use FU when none available (Count)
system.cpu.statFuBusy::SimdShift                    0      0.00%     19.83% # attempts to use FU when none available (Count)
system.cpu.statFuBusy::SimdShiftAcc                 0      0.00%     19.83% # attempts to use FU when none available (Count)
system.cpu.statFuBusy::SimdDiv                      0      0.00%     19.83% # attempts to use FU when none available (Count)
system.cpu.statFuBusy::SimdSqrt                     0      0.00%     19.83% # attempts to use FU when none available (Count)
system.cpu.statFuBusy::SimdFloatAdd                 0      0.00%     19.83% # attempts to use FU when none available (Count)
system.cpu.statFuBusy::SimdFloatAlu                 0      0.00%     19.83% # attempts to use FU when none available (Count)
system.cpu.statFuBusy::SimdFloatCmp                 0      0.00%     19.83% # attempts to use FU when none available (Count)
system.cpu.statFuBusy::SimdFloatCvt                 0      0.00%     19.83% # attempts to use FU when none available (Count)
system.cpu.statFuBusy::SimdFloatDiv                 0      0.00%     19.83% # attempts to use FU when none available (Count)
system.cpu.statFuBusy::SimdFloatMisc                0      0.00%     19.83% # attempts to use FU when none available (Count)
system.cpu.statFuBusy::SimdFloatMult                0      0.00%     19.83% # attempts to use FU when none available (Count)
system.cpu.statFuBusy::SimdFloatMultAcc             0      0.00%     19.83% # attempts to use FU when none available (Count)
system.cpu.statFuBusy::SimdFloatSqrt                0      0.00%     19.83% # attempts to use FU when none available (Count)
system.cpu.statFuBusy::SimdReduceAdd                0      0.00%     19.83% # attempts to use FU when none available (Count)
system.cpu.statFuBusy::SimdReduceAlu                0      0.00%     19.83% # attempts to use FU when none available (Count)
system.cpu.statFuBusy::SimdReduceCmp                0      0.00%     19.83% # attempts to use FU when none available (Count)
system.cpu.statFuBusy::SimdFloatReduceAdd            0      0.00%     19.83% # attempts to use FU when none available (Count)
system.cpu.statFuBusy::SimdFloatReduceCmp            0      0.00%     19.83% # attempts to use FU when none available (Count)
system.cpu.statFuBusy::SimdAes                      0      0.00%     19.83% # attempts to use FU when none available (Count)
system.cpu.statFuBusy::SimdAesMix                   0      0.00%     19.83% # attempts to use FU when none available (Count)
system.cpu.statFuBusy::SimdSha1Hash                 0      0.00%     19.83% # attempts to use FU when none available (Count)
system.cpu.statFuBusy::SimdSha1Hash2                0      0.00%     19.83% # attempts to use FU when none available (Count)
system.cpu.statFuBusy::SimdSha256Hash               0      0.00%     19.83% # attempts to use FU when none available (Count)
system.cpu.statFuBusy::SimdSha256Hash2              0      0.00%     19.83% # attempts to use FU when none available (Count)
system.cpu.statFuBusy::SimdShaSigma2                0      0.00%     19.83% # attempts to use FU when none available (Count)
system.cpu.statFuBusy::SimdShaSigma3                0      0.00%     19.83% # attempts to use FU when none available (Count)
system.cpu.statFuBusy::SimdPredAlu                  0      0.00%     19.83% # attempts to use FU when none available (Count)
system.cpu.statFuBusy::MemRead                 999209     38.27%     58.10% # attempts to use FU when none available (Count)
system.cpu.statFuBusy::MemWrite               1093990     41.90%    100.00% # attempts to use FU when none available (Count)
system.cpu.statFuBusy::FloatMemRead                 0      0.00%    100.00% # attempts to use FU when none available (Count)
system.cpu.statFuBusy::FloatMemWrite                0      0.00%    100.00% # attempts to use FU when none available (Count)
system.cpu.statFuBusy::IprAccess                    0      0.00%    100.00% # attempts to use FU when none available (Count)
system.cpu.statFuBusy::InstPrefetch                 0      0.00%    100.00% # attempts to use FU when none available (Count)
system.cpu.statIssuedInstType_0::No_OpClass       131154      0.14%      0.14% # Number of instructions issued per FU type, per thread (Count)
system.cpu.statIssuedInstType_0::IntAlu      62443233     64.65%     64.79% # Number of instructions issued per FU type, per thread (Count)
system.cpu.statIssuedInstType_0::IntMult       793651      0.82%     65.61% # Number of instructions issued per FU type, per thread (Count)
system.cpu.statIssuedInstType_0::IntDiv         89323      0.09%     65.70% # Number of instructions issued per FU type, per thread (Count)
system.cpu.statIssuedInstType_0::FloatAdd         6891      0.01%     65.71% # Number of instructions issued per FU type, per thread (Count)
system.cpu.statIssuedInstType_0::FloatCmp        67412      0.07%     65.78% # Number of instructions issued per FU type, per thread (Count)
system.cpu.statIssuedInstType_0::FloatCvt            0      0.00%     65.78% # Number of instructions issued per FU type, per thread (Count)
system.cpu.statIssuedInstType_0::FloatMult         5981      0.01%     65.78% # Number of instructions issued per FU type, per thread (Count)
system.cpu.statIssuedInstType_0::FloatMultAcc            0      0.00%     65.78% # Number of instructions issued per FU type, per thread (Count)
system.cpu.statIssuedInstType_0::FloatDiv            0      0.00%     65.78% # Number of instructions issued per FU type, per thread (Count)
system.cpu.statIssuedInstType_0::FloatMisc        55725      0.06%     65.84% # Number of instructions issued per FU type, per thread (Count)
system.cpu.statIssuedInstType_0::FloatSqrt            0      0.00%     65.84% # Number of instructions issued per FU type, per thread (Count)
system.cpu.statIssuedInstType_0::SimdAdd        65580      0.07%     65.91% # Number of instructions issued per FU type, per thread (Count)
system.cpu.statIssuedInstType_0::SimdAddAcc            0      0.00%     65.91% # Number of instructions issued per FU type, per thread (Count)
system.cpu.statIssuedInstType_0::SimdAlu       131140      0.14%     66.05% # Number of instructions issued per FU type, per thread (Count)
system.cpu.statIssuedInstType_0::SimdCmp       131144      0.14%     66.18% # Number of instructions issued per FU type, per thread (Count)
system.cpu.statIssuedInstType_0::SimdCvt            0      0.00%     66.18% # Number of instructions issued per FU type, per thread (Count)
system.cpu.statIssuedInstType_0::SimdMisc       129486      0.13%     66.32% # Number of instructions issued per FU type, per thread (Count)
system.cpu.statIssuedInstType_0::SimdMult            0      0.00%     66.32% # Number of instructions issued per FU type, per thread (Count)
system.cpu.statIssuedInstType_0::SimdMultAcc            0      0.00%     66.32% # Number of instructions issued per FU type, per thread (Count)
system.cpu.statIssuedInstType_0::SimdShift            0      0.00%     66.32% # Number of instructions issued per FU type, per thread (Count)
system.cpu.statIssuedInstType_0::SimdShiftAcc            0      0.00%     66.32% # Number of instructions issued per FU type, per thread (Count)
system.cpu.statIssuedInstType_0::SimdDiv            0      0.00%     66.32% # Number of instructions issued per FU type, per thread (Count)
system.cpu.statIssuedInstType_0::SimdSqrt            0      0.00%     66.32% # Number of instructions issued per FU type, per thread (Count)
system.cpu.statIssuedInstType_0::SimdFloatAdd            0      0.00%     66.32% # Number of instructions issued per FU type, per thread (Count)
system.cpu.statIssuedInstType_0::SimdFloatAlu            0      0.00%     66.32% # Number of instructions issued per FU type, per thread (Count)
system.cpu.statIssuedInstType_0::SimdFloatCmp            0      0.00%     66.32% # Number of instructions issued per FU type, per thread (Count)
system.cpu.statIssuedInstType_0::SimdFloatCvt            0      0.00%     66.32% # Number of instructions issued per FU type, per thread (Count)
system.cpu.statIssuedInstType_0::SimdFloatDiv            0      0.00%     66.32% # Number of instructions issued per FU type, per thread (Count)
system.cpu.statIssuedInstType_0::SimdFloatMisc            0      0.00%     66.32% # Number of instructions issued per FU type, per thread (Count)
system.cpu.statIssuedInstType_0::SimdFloatMult            0      0.00%     66.32% # Number of instructions issued per FU type, per thread (Count)
system.cpu.statIssuedInstType_0::SimdFloatMultAcc            0      0.00%     66.32% # Number of instructions issued per FU type, per thread (Count)
system.cpu.statIssuedInstType_0::SimdFloatSqrt            0      0.00%     66.32% # Number of instructions issued per FU type, per thread (Count)
system.cpu.statIssuedInstType_0::SimdReduceAdd            0      0.00%     66.32% # Number of instructions issued per FU type, per thread (Count)
system.cpu.statIssuedInstType_0::SimdReduceAlu            0      0.00%     66.32% # Number of instructions issued per FU type, per thread (Count)
system.cpu.statIssuedInstType_0::SimdReduceCmp            0      0.00%     66.32% # Number of instructions issued per FU type, per thread (Count)
system.cpu.statIssuedInstType_0::SimdFloatReduceAdd            0      0.00%     66.32% # Number of instructions issued per FU type, per thread (Count)
system.cpu.statIssuedInstType_0::SimdFloatReduceCmp            0      0.00%     66.32% # Number of instructions issued per FU type, per thread (Count)
system.cpu.statIssuedInstType_0::SimdAes            0      0.00%     66.32% # Number of instructions issued per FU type, per thread (Count)
system.cpu.statIssuedInstType_0::SimdAesMix            0      0.00%     66.32% # Number of instructions issued per FU type, per thread (Count)
system.cpu.statIssuedInstType_0::SimdSha1Hash            0      0.00%     66.32% # Number of instructions issued per FU type, per thread (Count)
system.cpu.statIssuedInstType_0::SimdSha1Hash2            0      0.00%     66.32% # Number of instructions issued per FU type, per thread (Count)
system.cpu.statIssuedInstType_0::SimdSha256Hash            0      0.00%     66.32% # Number of instructions issued per FU type, per thread (Count)
system.cpu.statIssuedInstType_0::SimdSha256Hash2            0      0.00%     66.32% # Number of instructions issued per FU type, per thread (Count)
system.cpu.statIssuedInstType_0::SimdShaSigma2            0      0.00%     66.32% # Number of instructions issued per FU type, per thread (Count)
system.cpu.statIssuedInstType_0::SimdShaSigma3            0      0.00%     66.32% # Number of instructions issued per FU type, per thread (Count)
system.cpu.statIssuedInstType_0::SimdPredAlu            0      0.00%     66.32% # Number of instructions issued per FU type, per thread (Count)
system.cpu.statIssuedInstType_0::MemRead     19927573     20.63%     86.95% # Number of instructions issued per FU type, per thread (Count)
system.cpu.statIssuedInstType_0::MemWrite     12607144     13.05%    100.00% # Number of instructions issued per FU type, per thread (Count)
system.cpu.statIssuedInstType_0::FloatMemRead            0      0.00%    100.00% # Number of instructions issued per FU type, per thread (Count)
system.cpu.statIssuedInstType_0::FloatMemWrite            0      0.00%    100.00% # Number of instructions issued per FU type, per thread (Count)
system.cpu.statIssuedInstType_0::IprAccess            0      0.00%    100.00% # Number of instructions issued per FU type, per thread (Count)
system.cpu.statIssuedInstType_0::InstPrefetch            0      0.00%    100.00% # Number of instructions issued per FU type, per thread (Count)
system.cpu.statIssuedInstType_0::total       96585437                       # Number of instructions issued per FU type, per thread (Count)
system.cpu.issueRate                         2.407335                       # Inst issue rate ((Count/Cycle))
system.cpu.fuBusy                             2610829                       # FU busy when requested (Count)
system.cpu.fuBusyRate                        0.027031                       # FU busy rate (busy events/executed inst) ((Count/Count))
system.cpu.intInstQueueReads                230436829                       # Number of integer instruction queue reads (Count)
system.cpu.intInstQueueWrites               100022991                       # Number of integer instruction queue writes (Count)
system.cpu.intInstQueueWakeupAccesses        92635069                       # Number of integer instruction queue wakeup accesses (Count)
system.cpu.fpInstQueueReads                         0                       # Number of floating instruction queue reads (Count)
system.cpu.fpInstQueueWrites                        0                       # Number of floating instruction queue writes (Count)
system.cpu.fpInstQueueWakeupAccesses                0                       # Number of floating instruction queue wakeup accesses (Count)
system.cpu.vecInstQueueReads                  4969190                       # Number of vector instruction queue reads (Count)
system.cpu.vecInstQueueWrites                 3269788                       # Number of vector instruction queue writes (Count)
system.cpu.vecInstQueueWakeupAccesses         1989879                       # Number of vector instruction queue wakeup accesses (Count)
system.cpu.intAluAccesses                    96520869                       # Number of integer alu accesses (Count)
system.cpu.fpAluAccesses                            0                       # Number of floating point alu accesses (Count)
system.cpu.vecAluAccesses                     2544243                       # Number of vector alu accesses (Count)
system.cpu.numInsts                          96027696                       # Number of executed instructions (Count)
system.cpu.numLoadInsts                      19862626                       # Number of load instructions executed (Count)
system.cpu.numSquashedInsts                    557741                       # Number of squashed instructions skipped in execute (Count)
system.cpu.numSwp                                   0                       # Number of swp insts executed (Count)
system.cpu.numNop                              108017                       # Number of nop insts executed (Count)
system.cpu.numRefs                           32227239                       # Number of memory reference insts executed (Count)
system.cpu.numBranches                       15911381                       # Number of branches executed (Count)
system.cpu.numStoreInsts                     12364613                       # Number of stores executed (Count)
system.cpu.numRate                           2.393433                       # Inst execution rate ((Count/Cycle))
system.cpu.timesIdled                           38202                       # Number of times that the entire CPU went into an idle state and unscheduled itself (Count)
system.cpu.idleCycles                          765934                       # Total number of cycles that the CPU has spent unscheduled due to idling (Cycle)
system.cpu.committedInsts                    82526788                       # Number of Instructions Simulated (Count)
system.cpu.committedOps                      90805032                       # Number of Ops (including micro ops) Simulated (Count)
system.cpu.cpi                               0.486161                       # CPI: Cycles Per Instruction ((Cycle/Count))
system.cpu.totalCpi                          0.486161                       # CPI: Total CPI of All Threads ((Cycle/Count))
system.cpu.ipc                               2.056931                       # IPC: Instructions Per Cycle ((Count/Cycle))
system.cpu.totalIpc                          2.056931                       # IPC: Total IPC of All Threads ((Count/Cycle))
system.cpu.intRegfileReads                  111759938                       # Number of integer regfile reads (Count)
system.cpu.intRegfileWrites                  68638037                       # Number of integer regfile writes (Count)
system.cpu.vecRegfileReads                    2108566                       # number of vector regfile reads (Count)
system.cpu.vecRegfileWrites                    710128                       # number of vector regfile writes (Count)
system.cpu.ccRegfileReads                    29253699                       # number of cc regfile reads (Count)
system.cpu.ccRegfileWrites                   29104391                       # number of cc regfile writes (Count)
system.cpu.miscRegfileReads                 181862556                       # number of misc regfile reads (Count)
system.cpu.miscRegfileWrites                   290821                       # number of misc regfile writes (Count)
system.cpu.MemDepUnit__0.insertedLoads       18931685                       # Number of loads inserted to the mem dependence unit. (Count)
system.cpu.MemDepUnit__0.insertedStores      13301449                       # Number of stores inserted to the mem dependence unit. (Count)
system.cpu.MemDepUnit__0.conflictingLoads      4073469                       # Number of conflicting loads. (Count)
system.cpu.MemDepUnit__0.conflictingStores      1495333                       # Number of conflicting stores. (Count)
system.cpu.MemDepUnit__1.insertedLoads              0                       # Number of loads inserted to the mem dependence unit. (Count)
system.cpu.MemDepUnit__1.insertedStores             0                       # Number of stores inserted to the mem dependence unit. (Count)
system.cpu.MemDepUnit__1.conflictingLoads            0                       # Number of conflicting loads. (Count)
system.cpu.MemDepUnit__1.conflictingStores            0                       # Number of conflicting stores. (Count)
system.cpu.MemDepUnit__2.insertedLoads              0                       # Number of loads inserted to the mem dependence unit. (Count)
system.cpu.MemDepUnit__2.insertedStores             0                       # Number of stores inserted to the mem dependence unit. (Count)
system.cpu.MemDepUnit__2.conflictingLoads            0                       # Number of conflicting loads. (Count)
system.cpu.MemDepUnit__2.conflictingStores            0                       # Number of conflicting stores. (Count)
system.cpu.MemDepUnit__3.insertedLoads              0                       # Number of loads inserted to the mem dependence unit. (Count)
system.cpu.MemDepUnit__3.insertedStores             0                       # Number of stores inserted to the mem dependence unit. (Count)
system.cpu.MemDepUnit__3.conflictingLoads            0                       # Number of conflicting loads. (Count)
system.cpu.MemDepUnit__3.conflictingStores            0                       # Number of conflicting stores. (Count)
system.cpu.branchPred.lookups                16581915                       # Number of BP lookups (Count)
system.cpu.branchPred.condPredicted          12261086                       # Number of conditional branches predicted (Count)
system.cpu.branchPred.condIncorrect            127797                       # Number of conditional branches incorrect (Count)
system.cpu.branchPred.BTBLookups              8405154                       # Number of BTB lookups (Count)
system.cpu.branchPred.BTBHits                 8385534                       # Number of BTB hits (Count)
system.cpu.branchPred.BTBHitRatio            0.997666                       # BTB Hit Ratio (Ratio)
system.cpu.branchPred.RASUsed                  977923                       # Number of times the RAS was used to get a target. (Count)
system.cpu.branchPred.RASIncorrect                 35                       # Number of incorrect RAS predictions. (Count)
system.cpu.branchPred.indirectLookups          225133                       # Number of indirect predictor lookups. (Count)
system.cpu.branchPred.indirectHits             203546                       # Number of indirect target hits. (Count)
system.cpu.branchPred.indirectMisses            21587                       # Number of indirect misses. (Count)
system.cpu.branchPred.indirectMispredicted          201                       # Number of mispredicted indirect branches. (Count)
system.cpu.commit.commitSquashedInsts         6221796                       # The number of squashed insts skipped by commit (Count)
system.cpu.commit.commitNonSpecStalls          196811                       # The number of times commit has been forced to stall to communicate backwards (Count)
system.cpu.commit.branchMispredicts            122599                       # The number of times a branch was mispredicted (Count)
system.cpu.commit.numCommittedDist::samples     38482260                       # Number of insts commited each cycle (Count)
system.cpu.commit.numCommittedDist::mean     2.362344                       # Number of insts commited each cycle (Count)
system.cpu.commit.numCommittedDist::stdev     2.940807                       # Number of insts commited each cycle (Count)
system.cpu.commit.numCommittedDist::underflows            0      0.00%      0.00% # Number of insts commited each cycle (Count)
system.cpu.commit.numCommittedDist::0        14999360     38.98%     38.98% # Number of insts commited each cycle (Count)
system.cpu.commit.numCommittedDist::1         7986210     20.75%     59.73% # Number of insts commited each cycle (Count)
system.cpu.commit.numCommittedDist::2         3264763      8.48%     68.21% # Number of insts commited each cycle (Count)
system.cpu.commit.numCommittedDist::3         2010463      5.22%     73.44% # Number of insts commited each cycle (Count)
system.cpu.commit.numCommittedDist::4         1609917      4.18%     77.62% # Number of insts commited each cycle (Count)
system.cpu.commit.numCommittedDist::5          637847      1.66%     79.28% # Number of insts commited each cycle (Count)
system.cpu.commit.numCommittedDist::6         1131558      2.94%     82.22% # Number of insts commited each cycle (Count)
system.cpu.commit.numCommittedDist::7          794189      2.06%     84.28% # Number of insts commited each cycle (Count)
system.cpu.commit.numCommittedDist::8         6047953     15.72%    100.00% # Number of insts commited each cycle (Count)
system.cpu.commit.numCommittedDist::overflows            0      0.00%    100.00% # Number of insts commited each cycle (Count)
system.cpu.commit.numCommittedDist::min_value            0                       # Number of insts commited each cycle (Count)
system.cpu.commit.numCommittedDist::max_value            8                       # Number of insts commited each cycle (Count)
system.cpu.commit.numCommittedDist::total     38482260                       # Number of insts commited each cycle (Count)
system.cpu.commit.instsCommitted             82630079                       # Number of instructions committed (Count)
system.cpu.commit.opsCommitted               90908323                       # Number of ops (including micro ops) committed (Count)
system.cpu.commit.memRefs                    29575400                       # Number of memory references committed (Count)
system.cpu.commit.loads                      18120865                       # Number of loads committed (Count)
system.cpu.commit.amos                          98358                       # Number of atomic instructions committed (Count)
system.cpu.commit.membars                       98368                       # Number of memory barriers committed (Count)
system.cpu.commit.branches                   15581860                       # Number of branches committed (Count)
system.cpu.commit.vectorInstructions          1629208                       # Number of committed Vector instructions. (Count)
system.cpu.commit.floating                          0                       # Number of committed floating point instructions. (Count)
system.cpu.commit.integer                    80605936                       # Number of committed integer instructions. (Count)
system.cpu.commit.functionCalls                934335                       # Number of function calls committed. (Count)
system.cpu.commit.committedInstType_0::No_OpClass       131142      0.14%      0.14% # Class of committed instruction (Count)
system.cpu.commit.committedInstType_0::IntAlu     59730312     65.70%     65.85% # Class of committed instruction (Count)
system.cpu.commit.committedInstType_0::IntMult       793339      0.87%     66.72% # Class of committed instruction (Count)
system.cpu.commit.committedInstType_0::IntDiv        89172      0.10%     66.82% # Class of committed instruction (Count)
system.cpu.commit.committedInstType_0::FloatAdd         6891      0.01%     66.83% # Class of committed instruction (Count)
system.cpu.commit.committedInstType_0::FloatCmp        65536      0.07%     66.90% # Class of committed instruction (Count)
system.cpu.commit.committedInstType_0::FloatCvt            0      0.00%     66.90% # Class of committed instruction (Count)
system.cpu.commit.committedInstType_0::FloatMult         5253      0.01%     66.90% # Class of committed instruction (Count)
system.cpu.commit.committedInstType_0::FloatMultAcc            0      0.00%     66.90% # Class of committed instruction (Count)
system.cpu.commit.committedInstType_0::FloatDiv            0      0.00%     66.90% # Class of committed instruction (Count)
system.cpu.commit.committedInstType_0::FloatMisc        54066      0.06%     66.96% # Class of committed instruction (Count)
system.cpu.commit.committedInstType_0::FloatSqrt            0      0.00%     66.96% # Class of committed instruction (Count)
system.cpu.commit.committedInstType_0::SimdAdd        65560      0.07%     67.04% # Class of committed instruction (Count)
system.cpu.commit.committedInstType_0::SimdAddAcc            0      0.00%     67.04% # Class of committed instruction (Count)
system.cpu.commit.committedInstType_0::SimdAlu       131100      0.14%     67.18% # Class of committed instruction (Count)
system.cpu.commit.committedInstType_0::SimdCmp       131096      0.14%     67.32% # Class of committed instruction (Count)
system.cpu.commit.committedInstType_0::SimdCvt            0      0.00%     67.32% # Class of committed instruction (Count)
system.cpu.commit.committedInstType_0::SimdMisc       129456      0.14%     67.47% # Class of committed instruction (Count)
system.cpu.commit.committedInstType_0::SimdMult            0      0.00%     67.47% # Class of committed instruction (Count)
system.cpu.commit.committedInstType_0::SimdMultAcc            0      0.00%     67.47% # Class of committed instruction (Count)
system.cpu.commit.committedInstType_0::SimdShift            0      0.00%     67.47% # Class of committed instruction (Count)
system.cpu.commit.committedInstType_0::SimdShiftAcc            0      0.00%     67.47% # Class of committed instruction (Count)
system.cpu.commit.committedInstType_0::SimdDiv            0      0.00%     67.47% # Class of committed instruction (Count)
system.cpu.commit.committedInstType_0::SimdSqrt            0      0.00%     67.47% # Class of committed instruction (Count)
system.cpu.commit.committedInstType_0::SimdFloatAdd            0      0.00%     67.47% # Class of committed instruction (Count)
system.cpu.commit.committedInstType_0::SimdFloatAlu            0      0.00%     67.47% # Class of committed instruction (Count)
system.cpu.commit.committedInstType_0::SimdFloatCmp            0      0.00%     67.47% # Class of committed instruction (Count)
system.cpu.commit.committedInstType_0::SimdFloatCvt            0      0.00%     67.47% # Class of committed instruction (Count)
system.cpu.commit.committedInstType_0::SimdFloatDiv            0      0.00%     67.47% # Class of committed instruction (Count)
system.cpu.commit.committedInstType_0::SimdFloatMisc            0      0.00%     67.47% # Class of committed instruction (Count)
system.cpu.commit.committedInstType_0::SimdFloatMult            0      0.00%     67.47% # Class of committed instruction (Count)
system.cpu.commit.committedInstType_0::SimdFloatMultAcc            0      0.00%     67.47% # Class of committed instruction (Count)
system.cpu.commit.committedInstType_0::SimdFloatSqrt            0      0.00%     67.47% # Class of committed instruction (Count)
system.cpu.commit.committedInstType_0::SimdReduceAdd            0      0.00%     67.47% # Class of committed instruction (Count)
system.cpu.commit.committedInstType_0::SimdReduceAlu            0      0.00%     67.47% # Class of committed instruction (Count)
system.cpu.commit.committedInstType_0::SimdReduceCmp            0      0.00%     67.47% # Class of committed instruction (Count)
system.cpu.commit.committedInstType_0::SimdFloatReduceAdd            0      0.00%     67.47% # Class of committed instruction (Count)
system.cpu.commit.committedInstType_0::SimdFloatReduceCmp            0      0.00%     67.47% # Class of committed instruction (Count)
system.cpu.commit.committedInstType_0::SimdAes            0      0.00%     67.47% # Class of committed instruction (Count)
system.cpu.commit.committedInstType_0::SimdAesMix            0      0.00%     67.47% # Class of committed instruction (Count)
system.cpu.commit.committedInstType_0::SimdSha1Hash            0      0.00%     67.47% # Class of committed instruction (Count)
system.cpu.commit.committedInstType_0::SimdSha1Hash2            0      0.00%     67.47% # Class of committed instruction (Count)
system.cpu.commit.committedInstType_0::SimdSha256Hash            0      0.00%     67.47% # Class of committed instruction (Count)
system.cpu.commit.committedInstType_0::SimdSha256Hash2            0      0.00%     67.47% # Class of committed instruction (Count)
system.cpu.commit.committedInstType_0::SimdShaSigma2            0      0.00%     67.47% # Class of committed instruction (Count)
system.cpu.commit.committedInstType_0::SimdShaSigma3            0      0.00%     67.47% # Class of committed instruction (Count)
system.cpu.commit.committedInstType_0::SimdPredAlu            0      0.00%     67.47% # Class of committed instruction (Count)
system.cpu.commit.committedInstType_0::MemRead     18120865     19.93%     87.40% # Class of committed instruction (Count)
system.cpu.commit.committedInstType_0::MemWrite     11454535     12.60%    100.00% # Class of committed instruction (Count)
system.cpu.commit.committedInstType_0::FloatMemRead            0      0.00%    100.00% # Class of committed instruction (Count)
system.cpu.commit.committedInstType_0::FloatMemWrite            0      0.00%    100.00% # Class of committed instruction (Count)
system.cpu.commit.committedInstType_0::IprAccess            0      0.00%    100.00% # Class of committed instruction (Count)
system.cpu.commit.committedInstType_0::InstPrefetch            0      0.00%    100.00% # Class of committed instruction (Count)
system.cpu.commit.committedInstType_0::total     90908323                       # Class of committed instruction (Count)
system.cpu.commit.commitEligibleSamples       6047953                       # number cycles where commit BW limit reached (Cycle)
system.cpu.dcache.demandHits::cpu.data       26557808                       # number of demand (read+write) hits (Count)
system.cpu.dcache.demandHits::total          26557808                       # number of demand (read+write) hits (Count)
system.cpu.dcache.overallHits::cpu.data      26608141                       # number of overall hits (Count)
system.cpu.dcache.overallHits::total         26608141                       # number of overall hits (Count)
system.cpu.dcache.demandMisses::cpu.data       145944                       # number of demand (read+write) misses (Count)
system.cpu.dcache.demandMisses::total          145944                       # number of demand (read+write) misses (Count)
system.cpu.dcache.overallMisses::cpu.data       145978                       # number of overall misses (Count)
system.cpu.dcache.overallMisses::total         145978                       # number of overall misses (Count)
system.cpu.dcache.demandMissLatency::cpu.data  10814194106                       # number of demand (read+write) miss ticks (Tick)
system.cpu.dcache.demandMissLatency::total  10814194106                       # number of demand (read+write) miss ticks (Tick)
system.cpu.dcache.overallMissLatency::cpu.data  10814194106                       # number of overall miss ticks (Tick)
system.cpu.dcache.overallMissLatency::total  10814194106                       # number of overall miss ticks (Tick)
system.cpu.dcache.demandAccesses::cpu.data     26703752                       # number of demand (read+write) accesses (Count)
system.cpu.dcache.demandAccesses::total      26703752                       # number of demand (read+write) accesses (Count)
system.cpu.dcache.overallAccesses::cpu.data     26754119                       # number of overall (read+write) accesses (Count)
system.cpu.dcache.overallAccesses::total     26754119                       # number of overall (read+write) accesses (Count)
system.cpu.dcache.demandMissRate::cpu.data     0.005465                       # miss rate for demand accesses (Ratio)
system.cpu.dcache.demandMissRate::total      0.005465                       # miss rate for demand accesses (Ratio)
system.cpu.dcache.overallMissRate::cpu.data     0.005456                       # miss rate for overall accesses (Ratio)
system.cpu.dcache.overallMissRate::total     0.005456                       # miss rate for overall accesses (Ratio)
system.cpu.dcache.demandAvgMissLatency::cpu.data 74098.243888                       # average overall miss latency ((Cycle/Count))
system.cpu.dcache.demandAvgMissLatency::total 74098.243888                       # average overall miss latency ((Cycle/Count))
system.cpu.dcache.overallAvgMissLatency::cpu.data 74080.985532                       # average overall miss latency ((Cycle/Count))
system.cpu.dcache.overallAvgMissLatency::total 74080.985532                       # average overall miss latency ((Cycle/Count))
system.cpu.dcache.blockedCycles::no_mshrs       893734                       # number of cycles access was blocked (Cycle)
system.cpu.dcache.blockedCycles::no_targets          133                       # number of cycles access was blocked (Cycle)
system.cpu.dcache.blockedCauses::no_mshrs        18030                       # number of times access was blocked (Count)
system.cpu.dcache.blockedCauses::no_targets            1                       # number of times access was blocked (Count)
system.cpu.dcache.avgBlocked::no_mshrs      49.569273                       # average number of cycles each access was blocked ((Cycle/Count))
system.cpu.dcache.avgBlocked::no_targets          133                       # average number of cycles each access was blocked ((Cycle/Count))
system.cpu.dcache.writebacks::writebacks        17666                       # number of writebacks (Count)
system.cpu.dcache.writebacks::total             17666                       # number of writebacks (Count)
system.cpu.dcache.demandMshrHits::cpu.data       111334                       # number of demand (read+write) MSHR hits (Count)
system.cpu.dcache.demandMshrHits::total        111334                       # number of demand (read+write) MSHR hits (Count)
system.cpu.dcache.overallMshrHits::cpu.data       111334                       # number of overall MSHR hits (Count)
system.cpu.dcache.overallMshrHits::total       111334                       # number of overall MSHR hits (Count)
system.cpu.dcache.demandMshrMisses::cpu.data        34610                       # number of demand (read+write) MSHR misses (Count)
system.cpu.dcache.demandMshrMisses::total        34610                       # number of demand (read+write) MSHR misses (Count)
system.cpu.dcache.overallMshrMisses::cpu.data        34644                       # number of overall MSHR misses (Count)
system.cpu.dcache.overallMshrMisses::total        34644                       # number of overall MSHR misses (Count)
system.cpu.dcache.demandMshrMissLatency::cpu.data   2815538409                       # number of demand (read+write) MSHR miss ticks (Tick)
system.cpu.dcache.demandMshrMissLatency::total   2815538409                       # number of demand (read+write) MSHR miss ticks (Tick)
system.cpu.dcache.overallMshrMissLatency::cpu.data   2817724409                       # number of overall MSHR miss ticks (Tick)
system.cpu.dcache.overallMshrMissLatency::total   2817724409                       # number of overall MSHR miss ticks (Tick)
system.cpu.dcache.demandMshrMissRate::cpu.data     0.001296                       # mshr miss ratio for demand accesses (Ratio)
system.cpu.dcache.demandMshrMissRate::total     0.001296                       # mshr miss ratio for demand accesses (Ratio)
system.cpu.dcache.overallMshrMissRate::cpu.data     0.001295                       # mshr miss ratio for overall accesses (Ratio)
system.cpu.dcache.overallMshrMissRate::total     0.001295                       # mshr miss ratio for overall accesses (Ratio)
system.cpu.dcache.demandAvgMshrMissLatency::cpu.data 81350.430771                       # average overall mshr miss latency ((Cycle/Count))
system.cpu.dcache.demandAvgMshrMissLatency::total 81350.430771                       # average overall mshr miss latency ((Cycle/Count))
system.cpu.dcache.overallAvgMshrMissLatency::cpu.data 81333.691519                       # average overall mshr miss latency ((Cycle/Count))
system.cpu.dcache.overallAvgMshrMissLatency::total 81333.691519                       # average overall mshr miss latency ((Cycle/Count))
system.cpu.dcache.replacements                  34135                       # number of replacements (Count)
system.cpu.dcache.LoadLockedReq.hits::cpu.data           38                       # number of LoadLockedReq hits (Count)
system.cpu.dcache.LoadLockedReq.hits::total           38                       # number of LoadLockedReq hits (Count)
system.cpu.dcache.LoadLockedReq.misses::cpu.data            6                       # number of LoadLockedReq misses (Count)
system.cpu.dcache.LoadLockedReq.misses::total            6                       # number of LoadLockedReq misses (Count)
system.cpu.dcache.LoadLockedReq.missLatency::cpu.data       456500                       # number of LoadLockedReq miss ticks (Tick)
system.cpu.dcache.LoadLockedReq.missLatency::total       456500                       # number of LoadLockedReq miss ticks (Tick)
system.cpu.dcache.LoadLockedReq.accesses::cpu.data           44                       # number of LoadLockedReq accesses(hits+misses) (Count)
system.cpu.dcache.LoadLockedReq.accesses::total           44                       # number of LoadLockedReq accesses(hits+misses) (Count)
system.cpu.dcache.LoadLockedReq.missRate::cpu.data     0.136364                       # miss rate for LoadLockedReq accesses (Ratio)
system.cpu.dcache.LoadLockedReq.missRate::total     0.136364                       # miss rate for LoadLockedReq accesses (Ratio)
system.cpu.dcache.LoadLockedReq.avgMissLatency::cpu.data 76083.333333                       # average LoadLockedReq miss latency ((Tick/Count))
system.cpu.dcache.LoadLockedReq.avgMissLatency::total 76083.333333                       # average LoadLockedReq miss latency ((Tick/Count))
system.cpu.dcache.LoadLockedReq.mshrHits::cpu.data            3                       # number of LoadLockedReq MSHR hits (Count)
system.cpu.dcache.LoadLockedReq.mshrHits::total            3                       # number of LoadLockedReq MSHR hits (Count)
system.cpu.dcache.LoadLockedReq.mshrMisses::cpu.data            3                       # number of LoadLockedReq MSHR misses (Count)
system.cpu.dcache.LoadLockedReq.mshrMisses::total            3                       # number of LoadLockedReq MSHR misses (Count)
system.cpu.dcache.LoadLockedReq.mshrMissLatency::cpu.data       255500                       # number of LoadLockedReq MSHR miss ticks (Tick)
system.cpu.dcache.LoadLockedReq.mshrMissLatency::total       255500                       # number of LoadLockedReq MSHR miss ticks (Tick)
system.cpu.dcache.LoadLockedReq.mshrMissRate::cpu.data     0.068182                       # mshr miss rate for LoadLockedReq accesses (Ratio)
system.cpu.dcache.LoadLockedReq.mshrMissRate::total     0.068182                       # mshr miss rate for LoadLockedReq accesses (Ratio)
system.cpu.dcache.LoadLockedReq.avgMshrMissLatency::cpu.data 85166.666667                       # average LoadLockedReq mshr miss latency ((Tick/Count))
system.cpu.dcache.LoadLockedReq.avgMshrMissLatency::total 85166.666667                       # average LoadLockedReq mshr miss latency ((Tick/Count))
system.cpu.dcache.ReadReq.hits::cpu.data     15274980                       # number of ReadReq hits (Count)
system.cpu.dcache.ReadReq.hits::total        15274980                       # number of ReadReq hits (Count)
system.cpu.dcache.ReadReq.misses::cpu.data        72598                       # number of ReadReq misses (Count)
system.cpu.dcache.ReadReq.misses::total         72598                       # number of ReadReq misses (Count)
system.cpu.dcache.ReadReq.missLatency::cpu.data   5296628500                       # number of ReadReq miss ticks (Tick)
system.cpu.dcache.ReadReq.missLatency::total   5296628500                       # number of ReadReq miss ticks (Tick)
system.cpu.dcache.ReadReq.accesses::cpu.data     15347578                       # number of ReadReq accesses(hits+misses) (Count)
system.cpu.dcache.ReadReq.accesses::total     15347578                       # number of ReadReq accesses(hits+misses) (Count)
system.cpu.dcache.ReadReq.missRate::cpu.data     0.004730                       # miss rate for ReadReq accesses (Ratio)
system.cpu.dcache.ReadReq.missRate::total     0.004730                       # miss rate for ReadReq accesses (Ratio)
system.cpu.dcache.ReadReq.avgMissLatency::cpu.data 72958.325298                       # average ReadReq miss latency ((Tick/Count))
system.cpu.dcache.ReadReq.avgMissLatency::total 72958.325298                       # average ReadReq miss latency ((Tick/Count))
system.cpu.dcache.ReadReq.mshrHits::cpu.data        53893                       # number of ReadReq MSHR hits (Count)
system.cpu.dcache.ReadReq.mshrHits::total        53893                       # number of ReadReq MSHR hits (Count)
system.cpu.dcache.ReadReq.mshrMisses::cpu.data        18705                       # number of ReadReq MSHR misses (Count)
system.cpu.dcache.ReadReq.mshrMisses::total        18705                       # number of ReadReq MSHR misses (Count)
system.cpu.dcache.ReadReq.mshrMissLatency::cpu.data   1561911500                       # number of ReadReq MSHR miss ticks (Tick)
system.cpu.dcache.ReadReq.mshrMissLatency::total   1561911500                       # number of ReadReq MSHR miss ticks (Tick)
system.cpu.dcache.ReadReq.mshrMissRate::cpu.data     0.001219                       # mshr miss rate for ReadReq accesses (Ratio)
system.cpu.dcache.ReadReq.mshrMissRate::total     0.001219                       # mshr miss rate for ReadReq accesses (Ratio)
system.cpu.dcache.ReadReq.avgMshrMissLatency::cpu.data 83502.352312                       # average ReadReq mshr miss latency ((Tick/Count))
system.cpu.dcache.ReadReq.avgMshrMissLatency::total 83502.352312                       # average ReadReq mshr miss latency ((Tick/Count))
system.cpu.dcache.SoftPFReq.hits::cpu.data        50333                       # number of SoftPFReq hits (Count)
system.cpu.dcache.SoftPFReq.hits::total         50333                       # number of SoftPFReq hits (Count)
system.cpu.dcache.SoftPFReq.misses::cpu.data           34                       # number of SoftPFReq misses (Count)
system.cpu.dcache.SoftPFReq.misses::total           34                       # number of SoftPFReq misses (Count)
system.cpu.dcache.SoftPFReq.accesses::cpu.data        50367                       # number of SoftPFReq accesses(hits+misses) (Count)
system.cpu.dcache.SoftPFReq.accesses::total        50367                       # number of SoftPFReq accesses(hits+misses) (Count)
system.cpu.dcache.SoftPFReq.missRate::cpu.data     0.000675                       # miss rate for SoftPFReq accesses (Ratio)
system.cpu.dcache.SoftPFReq.missRate::total     0.000675                       # miss rate for SoftPFReq accesses (Ratio)
system.cpu.dcache.SoftPFReq.mshrMisses::cpu.data           34                       # number of SoftPFReq MSHR misses (Count)
system.cpu.dcache.SoftPFReq.mshrMisses::total           34                       # number of SoftPFReq MSHR misses (Count)
system.cpu.dcache.SoftPFReq.mshrMissLatency::cpu.data      2186000                       # number of SoftPFReq MSHR miss ticks (Tick)
system.cpu.dcache.SoftPFReq.mshrMissLatency::total      2186000                       # number of SoftPFReq MSHR miss ticks (Tick)
system.cpu.dcache.SoftPFReq.mshrMissRate::cpu.data     0.000675                       # mshr miss rate for SoftPFReq accesses (Ratio)
system.cpu.dcache.SoftPFReq.mshrMissRate::total     0.000675                       # mshr miss rate for SoftPFReq accesses (Ratio)
system.cpu.dcache.SoftPFReq.avgMshrMissLatency::cpu.data 64294.117647                       # average SoftPFReq mshr miss latency ((Tick/Count))
system.cpu.dcache.SoftPFReq.avgMshrMissLatency::total 64294.117647                       # average SoftPFReq mshr miss latency ((Tick/Count))
system.cpu.dcache.StoreCondReq.hits::cpu.data           10                       # number of StoreCondReq hits (Count)
system.cpu.dcache.StoreCondReq.hits::total           10                       # number of StoreCondReq hits (Count)
system.cpu.dcache.StoreCondReq.accesses::cpu.data           10                       # number of StoreCondReq accesses(hits+misses) (Count)
system.cpu.dcache.StoreCondReq.accesses::total           10                       # number of StoreCondReq accesses(hits+misses) (Count)
system.cpu.dcache.SwapReq.hits::cpu.data        98358                       # number of SwapReq hits (Count)
system.cpu.dcache.SwapReq.hits::total           98358                       # number of SwapReq hits (Count)
system.cpu.dcache.SwapReq.accesses::cpu.data        98358                       # number of SwapReq accesses(hits+misses) (Count)
system.cpu.dcache.SwapReq.accesses::total        98358                       # number of SwapReq accesses(hits+misses) (Count)
system.cpu.dcache.WriteLineReq.misses::cpu.data         2054                       # number of WriteLineReq misses (Count)
system.cpu.dcache.WriteLineReq.misses::total         2054                       # number of WriteLineReq misses (Count)
system.cpu.dcache.WriteLineReq.missLatency::cpu.data     41143672                       # number of WriteLineReq miss ticks (Tick)
system.cpu.dcache.WriteLineReq.missLatency::total     41143672                       # number of WriteLineReq miss ticks (Tick)
system.cpu.dcache.WriteLineReq.accesses::cpu.data         2054                       # number of WriteLineReq accesses(hits+misses) (Count)
system.cpu.dcache.WriteLineReq.accesses::total         2054                       # number of WriteLineReq accesses(hits+misses) (Count)
system.cpu.dcache.WriteLineReq.missRate::cpu.data            1                       # miss rate for WriteLineReq accesses (Ratio)
system.cpu.dcache.WriteLineReq.missRate::total            1                       # miss rate for WriteLineReq accesses (Ratio)
system.cpu.dcache.WriteLineReq.avgMissLatency::cpu.data 20030.999026                       # average WriteLineReq miss latency ((Tick/Count))
system.cpu.dcache.WriteLineReq.avgMissLatency::total 20030.999026                       # average WriteLineReq miss latency ((Tick/Count))
system.cpu.dcache.WriteLineReq.mshrMisses::cpu.data         2054                       # number of WriteLineReq MSHR misses (Count)
system.cpu.dcache.WriteLineReq.mshrMisses::total         2054                       # number of WriteLineReq MSHR misses (Count)
system.cpu.dcache.WriteLineReq.mshrMissLatency::cpu.data     39089422                       # number of WriteLineReq MSHR miss ticks (Tick)
system.cpu.dcache.WriteLineReq.mshrMissLatency::total     39089422                       # number of WriteLineReq MSHR miss ticks (Tick)
system.cpu.dcache.WriteLineReq.mshrMissRate::cpu.data            1                       # mshr miss rate for WriteLineReq accesses (Ratio)
system.cpu.dcache.WriteLineReq.mshrMissRate::total            1                       # mshr miss rate for WriteLineReq accesses (Ratio)
system.cpu.dcache.WriteLineReq.avgMshrMissLatency::cpu.data 19030.877313                       # average WriteLineReq mshr miss latency ((Tick/Count))
system.cpu.dcache.WriteLineReq.avgMshrMissLatency::total 19030.877313                       # average WriteLineReq mshr miss latency ((Tick/Count))
system.cpu.dcache.WriteReq.hits::cpu.data     11282828                       # number of WriteReq hits (Count)
system.cpu.dcache.WriteReq.hits::total       11282828                       # number of WriteReq hits (Count)
system.cpu.dcache.WriteReq.misses::cpu.data        71292                       # number of WriteReq misses (Count)
system.cpu.dcache.WriteReq.misses::total        71292                       # number of WriteReq misses (Count)
system.cpu.dcache.WriteReq.missLatency::cpu.data   5476421934                       # number of WriteReq miss ticks (Tick)
system.cpu.dcache.WriteReq.missLatency::total   5476421934                       # number of WriteReq miss ticks (Tick)
system.cpu.dcache.WriteReq.accesses::cpu.data     11354120                       # number of WriteReq accesses(hits+misses) (Count)
system.cpu.dcache.WriteReq.accesses::total     11354120                       # number of WriteReq accesses(hits+misses) (Count)
system.cpu.dcache.WriteReq.missRate::cpu.data     0.006279                       # miss rate for WriteReq accesses (Ratio)
system.cpu.dcache.WriteReq.missRate::total     0.006279                       # miss rate for WriteReq accesses (Ratio)
system.cpu.dcache.WriteReq.avgMissLatency::cpu.data 76816.780761                       # average WriteReq miss latency ((Tick/Count))
system.cpu.dcache.WriteReq.avgMissLatency::total 76816.780761                       # average WriteReq miss latency ((Tick/Count))
system.cpu.dcache.WriteReq.mshrHits::cpu.data        57441                       # number of WriteReq MSHR hits (Count)
system.cpu.dcache.WriteReq.mshrHits::total        57441                       # number of WriteReq MSHR hits (Count)
system.cpu.dcache.WriteReq.mshrMisses::cpu.data        13851                       # number of WriteReq MSHR misses (Count)
system.cpu.dcache.WriteReq.mshrMisses::total        13851                       # number of WriteReq MSHR misses (Count)
system.cpu.dcache.WriteReq.mshrMissLatency::cpu.data   1214537487                       # number of WriteReq MSHR miss ticks (Tick)
system.cpu.dcache.WriteReq.mshrMissLatency::total   1214537487                       # number of WriteReq MSHR miss ticks (Tick)
system.cpu.dcache.WriteReq.mshrMissRate::cpu.data     0.001220                       # mshr miss rate for WriteReq accesses (Ratio)
system.cpu.dcache.WriteReq.mshrMissRate::total     0.001220                       # mshr miss rate for WriteReq accesses (Ratio)
system.cpu.dcache.WriteReq.avgMshrMissLatency::cpu.data 87685.906216                       # average WriteReq mshr miss latency ((Tick/Count))
system.cpu.dcache.WriteReq.avgMshrMissLatency::total 87685.906216                       # average WriteReq mshr miss latency ((Tick/Count))
system.cpu.dcache.power_state.pwrStateResidencyTicks::UNDEFINED  20060657500                       # Cumulative time (in ticks) in various power states (Tick)
system.cpu.dcache.tags.tagsInUse           510.171591                       # Average ticks per tags in use ((Tick/Count))
system.cpu.dcache.tags.totalRefs             26741194                       # Total number of references to valid blocks. (Count)
system.cpu.dcache.tags.sampledRefs              34647                       # Sample count of references to valid blocks. (Count)
system.cpu.dcache.tags.avgRefs             771.818455                       # Average number of references to valid blocks. ((Count/Count))
system.cpu.dcache.tags.warmupTick              145000                       # The tick when the warmup percentage was hit. (Tick)
system.cpu.dcache.tags.occupancies::cpu.data   510.171591                       # Average occupied blocks per tick, per requestor ((Count/Tick))
system.cpu.dcache.tags.avgOccs::cpu.data     0.996429                       # Average percentage of cache occupancy ((Ratio/Tick))
system.cpu.dcache.tags.avgOccs::total        0.996429                       # Average percentage of cache occupancy ((Ratio/Tick))
system.cpu.dcache.tags.occupanciesTaskId::1024          512                       # Occupied blocks per task id (Count)
system.cpu.dcache.tags.ageTaskId_1024::0           71                       # Occupied blocks per task id, per block age (Count)
system.cpu.dcache.tags.ageTaskId_1024::1           17                       # Occupied blocks per task id, per block age (Count)
system.cpu.dcache.tags.ageTaskId_1024::2          163                       # Occupied blocks per task id, per block age (Count)
system.cpu.dcache.tags.ageTaskId_1024::3          260                       # Occupied blocks per task id, per block age (Count)
system.cpu.dcache.tags.ageTaskId_1024::4            1                       # Occupied blocks per task id, per block age (Count)
system.cpu.dcache.tags.ratioOccsTaskId::1024            1                       # Ratio of occupied blocks and all blocks, per task id (Ratio)
system.cpu.dcache.tags.tagAccesses           53739709                       # Number of tag accesses (Count)
system.cpu.dcache.tags.dataAccesses          53739709                       # Number of data accesses (Count)
system.cpu.dcache.tags.power_state.pwrStateResidencyTicks::UNDEFINED  20060657500                       # Cumulative time (in ticks) in various power states (Tick)
system.cpu.decode.idleCycles                 12740693                       # Number of cycles decode is idle (Cycle)
system.cpu.decode.blockedCycles               7749867                       # Number of cycles decode is blocked (Cycle)
system.cpu.decode.runCycles                  17510092                       # Number of cycles decode is running (Cycle)
system.cpu.decode.unblockCycles               1178568                       # Number of cycles decode is unblocking (Cycle)
system.cpu.decode.squashCycles                 176162                       # Number of cycles decode is squashing (Cycle)
system.cpu.decode.branchResolved              8316340                       # Number of times decode resolved a branch (Count)
system.cpu.decode.branchMispred                  5211                       # Number of times decode detected a branch misprediction (Count)
system.cpu.decode.decodedInsts               98633610                       # Number of instructions handled by decode (Count)
system.cpu.decode.squashedInsts                 37313                       # Number of squashed instructions handled by decode (Count)
system.cpu.fetch.icacheStallCycles           14600417                       # Number of cycles fetch is stalled on an Icache miss (Cycle)
system.cpu.fetch.insts                       89907918                       # Number of instructions fetch has processed (Count)
system.cpu.fetch.branches                    16581915                       # Number of branches that fetch encountered (Count)
system.cpu.fetch.predictedBranches            9567003                       # Number of branches that fetch has predicted taken (Count)
system.cpu.fetch.cycles                      24573478                       # Number of cycles fetch has run and was not squashing or blocked (Cycle)
system.cpu.fetch.squashCycles                  362720                       # Number of cycles fetch has spent squashing (Cycle)
system.cpu.fetch.miscStallCycles                    8                       # Number of cycles fetch has spent waiting on interrupts, or bad addresses, or out of MSHRs (Cycle)
system.cpu.fetch.icacheWaitRetryStallCycles          119                       # Number of stall cycles due to full MSHR (Cycle)
system.cpu.fetch.cacheLines                  13470981                       # Number of cache lines fetched (Count)
system.cpu.fetch.icacheSquashes                 81643                       # Number of outstanding Icache misses that were squashed (Count)
system.cpu.fetch.nisnDist::samples           39355382                       # Number of instructions fetched each cycle (Total) (Count)
system.cpu.fetch.nisnDist::mean              2.552201                       # Number of instructions fetched each cycle (Total) (Count)
system.cpu.fetch.nisnDist::stdev             3.149885                       # Number of instructions fetched each cycle (Total) (Count)
system.cpu.fetch.nisnDist::underflows               0      0.00%      0.00% # Number of instructions fetched each cycle (Total) (Count)
system.cpu.fetch.nisnDist::0                 19314624     49.08%     49.08% # Number of instructions fetched each cycle (Total) (Count)
system.cpu.fetch.nisnDist::1                  2945095      7.48%     56.56% # Number of instructions fetched each cycle (Total) (Count)
system.cpu.fetch.nisnDist::2                  2150469      5.46%     62.03% # Number of instructions fetched each cycle (Total) (Count)
system.cpu.fetch.nisnDist::3                  1901779      4.83%     66.86% # Number of instructions fetched each cycle (Total) (Count)
system.cpu.fetch.nisnDist::4                  2145323      5.45%     72.31% # Number of instructions fetched each cycle (Total) (Count)
system.cpu.fetch.nisnDist::5                  1354781      3.44%     75.75% # Number of instructions fetched each cycle (Total) (Count)
system.cpu.fetch.nisnDist::6                  1174522      2.98%     78.74% # Number of instructions fetched each cycle (Total) (Count)
system.cpu.fetch.nisnDist::7                  1861147      4.73%     83.46% # Number of instructions fetched each cycle (Total) (Count)
system.cpu.fetch.nisnDist::8                  6507642     16.54%    100.00% # Number of instructions fetched each cycle (Total) (Count)
system.cpu.fetch.nisnDist::overflows                0      0.00%    100.00% # Number of instructions fetched each cycle (Total) (Count)
system.cpu.fetch.nisnDist::min_value                0                       # Number of instructions fetched each cycle (Total) (Count)
system.cpu.fetch.nisnDist::max_value                8                       # Number of instructions fetched each cycle (Total) (Count)
system.cpu.fetch.nisnDist::total             39355382                       # Number of instructions fetched each cycle (Total) (Count)
system.cpu.fetch.branchRate                  0.413294                       # Number of branch fetches per cycle (Ratio)
system.cpu.fetch.rate                        2.240902                       # Number of inst fetches per cycle ((Count/Cycle))
system.cpu.icache.demandHits::cpu.inst       13427203                       # number of demand (read+write) hits (Count)
system.cpu.icache.demandHits::total          13427203                       # number of demand (read+write) hits (Count)
system.cpu.icache.overallHits::cpu.inst      13427203                       # number of overall hits (Count)
system.cpu.icache.overallHits::total         13427203                       # number of overall hits (Count)
system.cpu.icache.demandMisses::cpu.inst        43778                       # number of demand (read+write) misses (Count)
system.cpu.icache.demandMisses::total           43778                       # number of demand (read+write) misses (Count)
system.cpu.icache.overallMisses::cpu.inst        43778                       # number of overall misses (Count)
system.cpu.icache.overallMisses::total          43778                       # number of overall misses (Count)
system.cpu.icache.demandMissLatency::cpu.inst   1059128497                       # number of demand (read+write) miss ticks (Tick)
system.cpu.icache.demandMissLatency::total   1059128497                       # number of demand (read+write) miss ticks (Tick)
system.cpu.icache.overallMissLatency::cpu.inst   1059128497                       # number of overall miss ticks (Tick)
system.cpu.icache.overallMissLatency::total   1059128497                       # number of overall miss ticks (Tick)
system.cpu.icache.demandAccesses::cpu.inst     13470981                       # number of demand (read+write) accesses (Count)
system.cpu.icache.demandAccesses::total      13470981                       # number of demand (read+write) accesses (Count)
system.cpu.icache.overallAccesses::cpu.inst     13470981                       # number of overall (read+write) accesses (Count)
system.cpu.icache.overallAccesses::total     13470981                       # number of overall (read+write) accesses (Count)
system.cpu.icache.demandMissRate::cpu.inst     0.003250                       # miss rate for demand accesses (Ratio)
system.cpu.icache.demandMissRate::total      0.003250                       # miss rate for demand accesses (Ratio)
system.cpu.icache.overallMissRate::cpu.inst     0.003250                       # miss rate for overall accesses (Ratio)
system.cpu.icache.overallMissRate::total     0.003250                       # miss rate for overall accesses (Ratio)
system.cpu.icache.demandAvgMissLatency::cpu.inst 24193.167733                       # average overall miss latency ((Cycle/Count))
system.cpu.icache.demandAvgMissLatency::total 24193.167733                       # average overall miss latency ((Cycle/Count))
system.cpu.icache.overallAvgMissLatency::cpu.inst 24193.167733                       # average overall miss latency ((Cycle/Count))
system.cpu.icache.overallAvgMissLatency::total 24193.167733                       # average overall miss latency ((Cycle/Count))
system.cpu.icache.blockedCycles::no_mshrs         1147                       # number of cycles access was blocked (Cycle)
system.cpu.icache.blockedCycles::no_targets            0                       # number of cycles access was blocked (Cycle)
system.cpu.icache.blockedCauses::no_mshrs           19                       # number of times access was blocked (Count)
system.cpu.icache.blockedCauses::no_targets            0                       # number of times access was blocked (Count)
system.cpu.icache.avgBlocked::no_mshrs      60.368421                       # average number of cycles each access was blocked ((Cycle/Count))
system.cpu.icache.avgBlocked::no_targets          nan                       # average number of cycles each access was blocked ((Cycle/Count))
system.cpu.icache.writebacks::writebacks        40335                       # number of writebacks (Count)
system.cpu.icache.writebacks::total             40335                       # number of writebacks (Count)
system.cpu.icache.demandMshrHits::cpu.inst         2942                       # number of demand (read+write) MSHR hits (Count)
system.cpu.icache.demandMshrHits::total          2942                       # number of demand (read+write) MSHR hits (Count)
system.cpu.icache.overallMshrHits::cpu.inst         2942                       # number of overall MSHR hits (Count)
system.cpu.icache.overallMshrHits::total         2942                       # number of overall MSHR hits (Count)
system.cpu.icache.demandMshrMisses::cpu.inst        40836                       # number of demand (read+write) MSHR misses (Count)
system.cpu.icache.demandMshrMisses::total        40836                       # number of demand (read+write) MSHR misses (Count)
system.cpu.icache.overallMshrMisses::cpu.inst        40836                       # number of overall MSHR misses (Count)
system.cpu.icache.overallMshrMisses::total        40836                       # number of overall MSHR misses (Count)
system.cpu.icache.demandMshrMissLatency::cpu.inst    962824998                       # number of demand (read+write) MSHR miss ticks (Tick)
system.cpu.icache.demandMshrMissLatency::total    962824998                       # number of demand (read+write) MSHR miss ticks (Tick)
system.cpu.icache.overallMshrMissLatency::cpu.inst    962824998                       # number of overall MSHR miss ticks (Tick)
system.cpu.icache.overallMshrMissLatency::total    962824998                       # number of overall MSHR miss ticks (Tick)
system.cpu.icache.demandMshrMissRate::cpu.inst     0.003031                       # mshr miss ratio for demand accesses (Ratio)
system.cpu.icache.demandMshrMissRate::total     0.003031                       # mshr miss ratio for demand accesses (Ratio)
system.cpu.icache.overallMshrMissRate::cpu.inst     0.003031                       # mshr miss ratio for overall accesses (Ratio)
system.cpu.icache.overallMshrMissRate::total     0.003031                       # mshr miss ratio for overall accesses (Ratio)
system.cpu.icache.demandAvgMshrMissLatency::cpu.inst 23577.847928                       # average overall mshr miss latency ((Cycle/Count))
system.cpu.icache.demandAvgMshrMissLatency::total 23577.847928                       # average overall mshr miss latency ((Cycle/Count))
system.cpu.icache.overallAvgMshrMissLatency::cpu.inst 23577.847928                       # average overall mshr miss latency ((Cycle/Count))
system.cpu.icache.overallAvgMshrMissLatency::total 23577.847928                       # average overall mshr miss latency ((Cycle/Count))
system.cpu.icache.replacements                  40335                       # number of replacements (Count)
system.cpu.icache.ReadReq.hits::cpu.inst     13427203                       # number of ReadReq hits (Count)
system.cpu.icache.ReadReq.hits::total        13427203                       # number of ReadReq hits (Count)
system.cpu.icache.ReadReq.misses::cpu.inst        43778                       # number of ReadReq misses (Count)
system.cpu.icache.ReadReq.misses::total         43778                       # number of ReadReq misses (Count)
system.cpu.icache.ReadReq.missLatency::cpu.inst   1059128497                       # number of ReadReq miss ticks (Tick)
system.cpu.icache.ReadReq.missLatency::total   1059128497                       # number of ReadReq miss ticks (Tick)
system.cpu.icache.ReadReq.accesses::cpu.inst     13470981                       # number of ReadReq accesses(hits+misses) (Count)
system.cpu.icache.ReadReq.accesses::total     13470981                       # number of ReadReq accesses(hits+misses) (Count)
system.cpu.icache.ReadReq.missRate::cpu.inst     0.003250                       # miss rate for ReadReq accesses (Ratio)
system.cpu.icache.ReadReq.missRate::total     0.003250                       # miss rate for ReadReq accesses (Ratio)
system.cpu.icache.ReadReq.avgMissLatency::cpu.inst 24193.167733                       # average ReadReq miss latency ((Tick/Count))
system.cpu.icache.ReadReq.avgMissLatency::total 24193.167733                       # average ReadReq miss latency ((Tick/Count))
system.cpu.icache.ReadReq.mshrHits::cpu.inst         2942                       # number of ReadReq MSHR hits (Count)
system.cpu.icache.ReadReq.mshrHits::total         2942                       # number of ReadReq MSHR hits (Count)
system.cpu.icache.ReadReq.mshrMisses::cpu.inst        40836                       # number of ReadReq MSHR misses (Count)
system.cpu.icache.ReadReq.mshrMisses::total        40836                       # number of ReadReq MSHR misses (Count)
system.cpu.icache.ReadReq.mshrMissLatency::cpu.inst    962824998                       # number of ReadReq MSHR miss ticks (Tick)
system.cpu.icache.ReadReq.mshrMissLatency::total    962824998                       # number of ReadReq MSHR miss ticks (Tick)
system.cpu.icache.ReadReq.mshrMissRate::cpu.inst     0.003031                       # mshr miss rate for ReadReq accesses (Ratio)
system.cpu.icache.ReadReq.mshrMissRate::total     0.003031                       # mshr miss rate for ReadReq accesses (Ratio)
system.cpu.icache.ReadReq.avgMshrMissLatency::cpu.inst 23577.847928                       # average ReadReq mshr miss latency ((Tick/Count))
system.cpu.icache.ReadReq.avgMshrMissLatency::total 23577.847928                       # average ReadReq mshr miss latency ((Tick/Count))
system.cpu.icache.power_state.pwrStateResidencyTicks::UNDEFINED  20060657500                       # Cumulative time (in ticks) in various power states (Tick)
system.cpu.icache.tags.tagsInUse           493.807279                       # Average ticks per tags in use ((Tick/Count))
system.cpu.icache.tags.totalRefs             13468038                       # Total number of references to valid blocks. (Count)
system.cpu.icache.tags.sampledRefs              40835                       # Sample count of references to valid blocks. (Count)
system.cpu.icache.tags.avgRefs             329.816040                       # Average number of references to valid blocks. ((Count/Count))
system.cpu.icache.tags.warmupTick               77000                       # The tick when the warmup percentage was hit. (Tick)
system.cpu.icache.tags.occupancies::cpu.inst   493.807279                       # Average occupied blocks per tick, per requestor ((Count/Tick))
system.cpu.icache.tags.avgOccs::cpu.inst     0.964467                       # Average percentage of cache occupancy ((Ratio/Tick))
system.cpu.icache.tags.avgOccs::total        0.964467                       # Average percentage of cache occupancy ((Ratio/Tick))
system.cpu.icache.tags.occupanciesTaskId::1024          500                       # Occupied blocks per task id (Count)
system.cpu.icache.tags.ageTaskId_1024::0           96                       # Occupied blocks per task id, per block age (Count)
system.cpu.icache.tags.ageTaskId_1024::2            9                       # Occupied blocks per task id, per block age (Count)
system.cpu.icache.tags.ageTaskId_1024::3          178                       # Occupied blocks per task id, per block age (Count)
system.cpu.icache.tags.ageTaskId_1024::4          217                       # Occupied blocks per task id, per block age (Count)
system.cpu.icache.tags.ratioOccsTaskId::1024     0.976562                       # Ratio of occupied blocks and all blocks, per task id (Ratio)
system.cpu.icache.tags.tagAccesses           26982797                       # Number of tag accesses (Count)
system.cpu.icache.tags.dataAccesses          26982797                       # Number of data accesses (Count)
system.cpu.icache.tags.power_state.pwrStateResidencyTicks::UNDEFINED  20060657500                       # Cumulative time (in ticks) in various power states (Tick)
system.cpu.iew.idleCycles                           0                       # Number of cycles IEW is idle (Cycle)
system.cpu.iew.squashCycles                    176162                       # Number of cycles IEW is squashing (Cycle)
system.cpu.iew.blockCycles                    1345446                       # Number of cycles IEW is blocking (Cycle)
system.cpu.iew.unblockCycles                   792296                       # Number of cycles IEW is unblocking (Cycle)
system.cpu.iew.dispatchedInsts               97130142                       # Number of instructions dispatched to IQ (Count)
system.cpu.iew.dispSquashedInsts                90443                       # Number of squashed instructions skipped by dispatch (Count)
system.cpu.iew.dispLoadInsts                 18931685                       # Number of dispatched load instructions (Count)
system.cpu.iew.dispStoreInsts                13301449                       # Number of dispatched store instructions (Count)
system.cpu.iew.dispNonSpecInsts                196995                       # Number of dispatched non-speculative instructions (Count)
system.cpu.iew.iqFullEvents                     35680                       # Number of times the IQ has become full, causing a stall (Count)
system.cpu.iew.lsqFullEvents                   743958                       # Number of times the LSQ has become full, causing a stall (Count)
system.cpu.iew.memOrderViolationEvents          53568                       # Number of memory order violations (Count)
[...]
system.mem_ctrls.dram.bwRead::cpu.inst      130276886                       # Total read bandwidth from this memory ((Byte/Second))
system.mem_ctrls.dram.bwRead::cpu.data      103905667                       # Total read bandwidth from this memory ((Byte/Second))
system.mem_ctrls.dram.bwRead::total         234182554                       # Total read bandwidth from this memory ((Byte/Second))
system.mem_ctrls.dram.bwInstRead::cpu.inst    130276886                       # Instruction read bandwidth from this memory ((Byte/Second))
system.mem_ctrls.dram.bwInstRead::total     130276886                       # Instruction read bandwidth from this memory ((Byte/Second))
system.mem_ctrls.dram.bwWrite::writebacks     56360266                       # Write bandwidth from this memory ((Byte/Second))
system.mem_ctrls.dram.bwWrite::total         56360266                       # Write bandwidth from this memory ((Byte/Second))
system.mem_ctrls.dram.bwTotal::writebacks     56360266                       # Total bandwidth to/from this memory ((Byte/Second))
system.mem_ctrls.dram.bwTotal::cpu.inst     130276886                       # Total bandwidth to/from this memory ((Byte/Second))
system.mem_ctrls.dram.bwTotal::cpu.data     103905667                       # Total bandwidth to/from this memory ((Byte/Second))
system.mem_ctrls.dram.bwTotal::total        290542820                       # Total bandwidth to/from this memory ((Byte/Second))
system.mem_ctrls.dram.readBursts                33583                       # Number of DRAM read bursts (Count)
system.mem_ctrls.dram.writeBursts               18700                       # Number of DRAM write bursts (Count)
system.mem_ctrls.dram.perBankRdBursts::0         1972                       # Per bank write bursts (Count)
system.mem_ctrls.dram.perBankRdBursts::1         1971                       # Per bank write bursts (Count)
system.mem_ctrls.dram.perBankRdBursts::2         2050                       # Per bank write bursts (Count)
system.mem_ctrls.dram.perBankRdBursts::3         1958                       # Per bank write bursts (Count)
system.mem_ctrls.dram.perBankRdBursts::4         1989                       # Per bank write bursts (Count)
system.mem_ctrls.dram.perBankRdBursts::5         2663                       # Per bank write bursts (Count)
system.mem_ctrls.dram.perBankRdBursts::6         2485                       # Per bank write bursts (Count)
system.mem_ctrls.dram.perBankRdBursts::7         2526                       # Per bank write bursts (Count)
system.mem_ctrls.dram.perBankRdBursts::8         1949                       # Per bank write bursts (Count)
system.mem_ctrls.dram.perBankRdBursts::9         1907                       # Per bank write bursts (Count)
system.mem_ctrls.dram.perBankRdBursts::10         2371                       # Per bank write bursts (Count)
system.mem_ctrls.dram.perBankRdBursts::11         1984                       # Per bank write bursts (Count)
system.mem_ctrls.dram.perBankRdBursts::12         2108                       # Per bank write bursts (Count)
system.mem_ctrls.dram.perBankRdBursts::13         1935                       # Per bank write bursts (Count)
system.mem_ctrls.dram.perBankRdBursts::14         1874                       # Per bank write bursts (Count)
system.mem_ctrls.dram.perBankRdBursts::15         1841                       # Per bank write bursts (Count)
system.mem_ctrls.dram.perBankWrBursts::0         1105                       # Per bank write bursts (Count)
system.mem_ctrls.dram.perBankWrBursts::1         1098                       # Per bank write bursts (Count)
system.mem_ctrls.dram.perBankWrBursts::2         1172                       # Per bank write bursts (Count)
system.mem_ctrls.dram.perBankWrBursts::3         1178                       # Per bank write bursts (Count)
system.mem_ctrls.dram.perBankWrBursts::4         1152                       # Per bank write bursts (Count)
system.mem_ctrls.dram.perBankWrBursts::5         1414                       # Per bank write bursts (Count)
system.mem_ctrls.dram.perBankWrBursts::6         1385                       # Per bank write bursts (Count)
system.mem_ctrls.dram.perBankWrBursts::7         1209                       # Per bank write bursts (Count)
system.mem_ctrls.dram.perBankWrBursts::8         1087                       # Per bank write bursts (Count)
system.mem_ctrls.dram.perBankWrBursts::9         1197                       # Per bank write bursts (Count)
system.mem_ctrls.dram.perBankWrBursts::10         1043                       # Per bank write bursts (Count)
system.mem_ctrls.dram.perBankWrBursts::11         1233                       # Per bank write bursts (Count)
system.mem_ctrls.dram.perBankWrBursts::12         1067                       # Per bank write bursts (Count)
system.mem_ctrls.dram.perBankWrBursts::13         1239                       # Per bank write bursts (Count)
system.mem_ctrls.dram.perBankWrBursts::14         1060                       # Per bank write bursts (Count)
system.mem_ctrls.dram.perBankWrBursts::15         1061                       # Per bank write bursts (Count)
system.mem_ctrls.dram.totQLat              1159312500                       # Total ticks spent queuing (Tick)
system.mem_ctrls.dram.totBusLat             167915000                       # Total ticks spent in databus transfers (Tick)
system.mem_ctrls.dram.totMemAccLat         1788993750                       # Total ticks spent from burst creation until serviced by the DRAM (Tick)
system.mem_ctrls.dram.avgQLat                34520.81                       # Average queueing delay per DRAM burst ((Tick/Count))
system.mem_ctrls.dram.avgBusLat               5000.00                       # Average bus latency per DRAM burst ((Tick/Count))
system.mem_ctrls.dram.avgMemAccLat           53270.81                       # Average memory access latency per DRAM burst ((Tick/Count))
system.mem_ctrls.dram.readRowHits               21360                       # Number of row buffer hits during reads (Count)
system.mem_ctrls.dram.writeRowHits              16346                       # Number of row buffer hits during writes (Count)
system.mem_ctrls.dram.readRowHitRate            63.60                       # Row buffer hit rate for reads (Ratio)
system.mem_ctrls.dram.writeRowHitRate           87.41                       # Row buffer hit rate for writes (Ratio)
system.mem_ctrls.dram.bytesPerActivate::samples        14564                       # Bytes accessed per row activation (Byte)
system.mem_ctrls.dram.bytesPerActivate::mean   229.646800                       # Bytes accessed per row activation (Byte)
system.mem_ctrls.dram.bytesPerActivate::gmean   151.572141                       # Bytes accessed per row activation (Byte)
system.mem_ctrls.dram.bytesPerActivate::stdev   259.578436                       # Bytes accessed per row activation (Byte)
system.mem_ctrls.dram.bytesPerActivate::0-127         4966     34.10%     34.10% # Bytes accessed per row activation (Byte)
system.mem_ctrls.dram.bytesPerActivate::128-255         5425     37.25%     71.35% # Bytes accessed per row activation (Byte)
system.mem_ctrls.dram.bytesPerActivate::256-383         2223     15.26%     86.61% # Bytes accessed per row activation (Byte)
system.mem_ctrls.dram.bytesPerActivate::384-511          339      2.33%     88.94% # Bytes accessed per row activation (Byte)
system.mem_ctrls.dram.bytesPerActivate::512-639          200      1.37%     90.31% # Bytes accessed per row activation (Byte)
system.mem_ctrls.dram.bytesPerActivate::640-767          175      1.20%     91.51% # Bytes accessed per row activation (Byte)
system.mem_ctrls.dram.bytesPerActivate::768-895          120      0.82%     92.34% # Bytes accessed per row activation (Byte)
system.mem_ctrls.dram.bytesPerActivate::896-1023          124      0.85%     93.19% # Bytes accessed per row activation (Byte)
system.mem_ctrls.dram.bytesPerActivate::1024-1151          992      6.81%    100.00% # Bytes accessed per row activation (Byte)
system.mem_ctrls.dram.bytesPerActivate::total        14564                       # Bytes accessed per row activation (Byte)
system.mem_ctrls.dram.bytesRead               2149312                       # Total bytes read (Byte)
system.mem_ctrls.dram.bytesWritten            1196800                       # Total bytes written (Byte)
system.mem_ctrls.dram.avgRdBW              107.140656                       # Average DRAM read bandwidth in MiBytes/s ((Byte/Second))
system.mem_ctrls.dram.avgWrBW               59.659062                       # Average DRAM write bandwidth in MiBytes/s ((Byte/Second))
system.mem_ctrls.dram.peakBW                 12800.00                       # Theoretical peak bandwidth in MiByte/s ((Byte/Second))
system.mem_ctrls.dram.busUtil                    1.30                       # Data bus utilization in percentage (Ratio)
system.mem_ctrls.dram.busUtilRead                0.84                       # Data bus utilization in percentage for reads (Ratio)
system.mem_ctrls.dram.busUtilWrite               0.47                       # Data bus utilization in percentage for writes (Ratio)
system.mem_ctrls.dram.pageHitRate               72.12                       # Row buffer hit rate, read and write combined (Ratio)
system.mem_ctrls.dram.power_state.pwrStateResidencyTicks::UNDEFINED  20060657500                       # Cumulative time (in ticks) in various power states (Tick)
system.mem_ctrls.dram.rank0.actEnergy        54335400                       # Energy for activate commands per rank (pJ) (Joule)
system.mem_ctrls.dram.rank0.preEnergy        28860975                       # Energy for precharge commands per rank (pJ) (Joule)
system.mem_ctrls.dram.rank0.readEnergy      125756820                       # Energy for read commands per rank (pJ) (Joule)
system.mem_ctrls.dram.rank0.writeEnergy      50701860                       # Energy for write commands per rank (pJ) (Joule)
system.mem_ctrls.dram.rank0.refreshEnergy 1583312640.000000                       # Energy for refresh commands per rank (pJ) (Joule)
system.mem_ctrls.dram.rank0.actBackEnergy   4604266200                       # Energy for active background per rank (pJ) (Joule)
system.mem_ctrls.dram.rank0.preBackEnergy   3826015680                       # Energy for precharge background per rank (pJ) (Joule)
system.mem_ctrls.dram.rank0.actPowerDownEnergy            0                       # Energy for active power-down per rank (pJ) (Joule)
system.mem_ctrls.dram.rank0.prePowerDownEnergy            0                       # Energy for precharge power-down per rank (pJ) (Joule)
system.mem_ctrls.dram.rank0.selfRefreshEnergy            0                       # Energy for self refresh per rank (pJ) (Joule)
system.mem_ctrls.dram.rank0.totalEnergy   10273249575                       # Total energy per rank (pJ) (Joule)
system.mem_ctrls.dram.rank0.averagePower   512.109315                       # Core power per rank (mW) (Watt)
system.mem_ctrls.dram.rank0.totalIdleTime            0                       # Total Idle time Per DRAM Rank (Tick)
system.mem_ctrls.dram.rank0.pwrStateTime::IDLE   9887281750                       # Time in different power states (Tick)
system.mem_ctrls.dram.rank0.pwrStateTime::REF    669760000                       # Time in different power states (Tick)
system.mem_ctrls.dram.rank0.pwrStateTime::SREF            0                       # Time in different power states (Tick)
system.mem_ctrls.dram.rank0.pwrStateTime::PRE_PDN            0                       # Time in different power states (Tick)
system.mem_ctrls.dram.rank0.pwrStateTime::ACT   9503615750                       # Time in different power states (Tick)
system.mem_ctrls.dram.rank0.pwrStateTime::ACT_PDN            0                       # Time in different power states (Tick)
system.mem_ctrls.dram.rank1.actEnergy        49737240                       # Energy for activate commands per rank (pJ) (Joule)
system.mem_ctrls.dram.rank1.preEnergy        26409405                       # Energy for precharge commands per rank (pJ) (Joule)
system.mem_ctrls.dram.rank1.readEnergy      114018660                       # Energy for read commands per rank (pJ) (Joule)
system.mem_ctrls.dram.rank1.writeEnergy      46912140                       # Energy for write commands per rank (pJ) (Joule)
system.mem_ctrls.dram.rank1.refreshEnergy 1583312640.000000                       # Energy for refresh commands per rank (pJ) (Joule)
system.mem_ctrls.dram.rank1.actBackEnergy   4381804320                       # Energy for active background per rank (pJ) (Joule)
system.mem_ctrls.dram.rank1.preBackEnergy   4013352000                       # Energy for precharge background per rank (pJ) (Joule)
system.mem_ctrls.dram.rank1.actPowerDownEnergy            0                       # Energy for active power-down per rank (pJ) (Joule)
system.mem_ctrls.dram.rank1.prePowerDownEnergy            0                       # Energy for precharge power-down per rank (pJ) (Joule)
system.mem_ctrls.dram.rank1.selfRefreshEnergy            0                       # Energy for self refresh per rank (pJ) (Joule)
system.mem_ctrls.dram.rank1.totalEnergy   10215546405                       # Total energy per rank (pJ) (Joule)
system.mem_ctrls.dram.rank1.averagePower   509.232881                       # Core power per rank (mW) (Watt)
system.mem_ctrls.dram.rank1.totalIdleTime            0                       # Total Idle time Per DRAM Rank (Tick)
system.mem_ctrls.dram.rank1.pwrStateTime::IDLE  10372599250                       # Time in different power states (Tick)
system.mem_ctrls.dram.rank1.pwrStateTime::REF    669760000                       # Time in different power states (Tick)
system.mem_ctrls.dram.rank1.pwrStateTime::SREF            0                       # Time in different power states (Tick)
system.mem_ctrls.dram.rank1.pwrStateTime::PRE_PDN            0                       # Time in different power states (Tick)
system.mem_ctrls.dram.rank1.pwrStateTime::ACT   9018298250                       # Time in different power states (Tick)
system.mem_ctrls.dram.rank1.pwrStateTime::ACT_PDN            0                       # Time in different power states (Tick)
system.mem_ctrls.power_state.pwrStateResidencyTicks::UNDEFINED  20060657500                       # Cumulative time (in ticks) in various power states (Tick)
system.membus.transDist::ReadResp               59576                       # Transaction distribution (Count)
system.membus.transDist::WritebackDirty         17666                       # Transaction distribution (Count)
system.membus.transDist::WritebackClean         40335                       # Transaction distribution (Count)
system.membus.transDist::CleanEvict             16469                       # Transaction distribution (Count)
system.membus.transDist::ReadExReq              13828                       # Transaction distribution (Count)
system.membus.transDist::ReadExResp             13828                       # Transaction distribution (Count)
system.membus.transDist::ReadCleanReq           40836                       # Transaction distribution (Count)
system.membus.transDist::ReadSharedReq          18741                       # Transaction distribution (Count)
system.membus.transDist::InvalidateReq           2078                       # Transaction distribution (Count)
system.membus.pktCount_system.cpu.icache.mem_side_port::system.mem_ctrls.port       122006                       # Packet count per connected requestor and responder (Count)
system.membus.pktCount_system.cpu.dcache.mem_side_port::system.mem_ctrls.port       101351                       # Packet count per connected requestor and responder (Count)
system.membus.pktCount::total                  223357                       # Packet count per connected requestor and responder (Count)
system.membus.pktSize_system.cpu.icache.mem_side_port::system.mem_ctrls.port      5194880                       # Cumulative packet size per connected requestor and responder (Byte)
system.membus.pktSize_system.cpu.dcache.mem_side_port::system.mem_ctrls.port      3215040                       # Cumulative packet size per connected requestor and responder (Byte)
system.membus.pktSize::total                  8409920                       # Cumulative packet size per connected requestor and responder (Byte)
system.membus.snoops                                0                       # Total snoops (Count)
system.membus.snoopTraffic                          0                       # Total snoop traffic (Byte)
system.membus.snoopFanout::samples              75483                       # Request fanout histogram (Count)
system.membus.snoopFanout::mean              0.000026                       # Request fanout histogram (Count)
system.membus.snoopFanout::stdev             0.005147                       # Request fanout histogram (Count)
system.membus.snoopFanout::underflows               0      0.00%      0.00% # Request fanout histogram (Count)
system.membus.snoopFanout::0                    75481    100.00%    100.00% # Request fanout histogram (Count)
system.membus.snoopFanout::1                        2      0.00%    100.00% # Request fanout histogram (Count)
system.membus.snoopFanout::2                        0      0.00%    100.00% # Request fanout histogram (Count)
system.membus.snoopFanout::overflows                0      0.00%    100.00% # Request fanout histogram (Count)
system.membus.snoopFanout::min_value                0                       # Request fanout histogram (Count)
system.membus.snoopFanout::max_value                1                       # Request fanout histogram (Count)
system.membus.snoopFanout::total                75483                       # Request fanout histogram (Count)
system.membus.power_state.pwrStateResidencyTicks::UNDEFINED  20060657500                       # Cumulative time (in ticks) in various power states (Tick)
system.membus.reqLayer0.occupancy           393110750                       # Layer occupancy (ticks) (Tick)
system.membus.reqLayer0.utilization               0.0                       # Layer utilization (Ratio)
system.membus.respLayer1.occupancy          204742250                       # Layer occupancy (ticks) (Tick)
system.membus.respLayer1.utilization              0.0                       # Layer utilization (Ratio)
system.membus.respLayer2.occupancy          171191500                       # Layer occupancy (ticks) (Tick)
system.membus.respLayer2.utilization              0.0                       # Layer utilization (Ratio)
system.membus.snoop_filter.totRequests         149956                       # Total number of requests made to the snoop filter. (Count)
system.membus.snoop_filter.hitSingleRequests        74474                       # Number of requests hitting in the snoop filter with a single holder of the requested data. (Count)
system.membus.snoop_filter.hitMultiRequests            1                       # Number of requests hitting in the snoop filter with multiple (>1) holders of the requested data. (Count)
system.membus.snoop_filter.totSnoops                0                       # Total number of snoops made to the snoop filter. (Count)
system.membus.snoop_filter.hitSingleSnoops            0                       # Number of snoops hitting in the snoop filter with a single holder of the requested data. (Count)
system.membus.snoop_filter.hitMultiSnoops            0                       # Number of snoops hitting in the snoop filter with multiple (>1) holders of the requested data. (Count)
system.voltage_domain.voltage                       1                       # Voltage in Volts (Volt)
system.workload.inst.arm                            0                       # number of arm instructions executed (Count)
system.workload.inst.quiesce                        0                       # number of quiesce instructions executed (Count)

---------- End Simulation Statistics   ----------
