
---------- Begin Simulation Statistics ----------
simSeconds                                   0.019889                       # Number of seconds simulated (Second)
simTicks                                  19889125500                       # Number of ticks simulated (Tick)
finalTick                                 19889125500                       # Number of ticks from beginning of simulation (restored from checkpoints and never reset) (Tick)
simFreq                                  1000000000000                       # The number of ticks per simulated second ((Tick/Second))
hostSeconds                                    178.98                       # Real time elapsed on the host (Second)
hostTickRate                                111122155                       # The number of ticks simulated per host second (ticks/s) ((Tick/Second))
hostMemory                                     680488                       # Number of bytes of host memory used (Byte)
simInsts                                     82413470                       # Number of instructions simulated (Count)
simOps                                       90674047                       # Number of ops (including micro ops) simulated (Count)
hostInstRate                                   460450                       # Simulator instruction rate (inst/s) ((Count/Second))
hostOpRate                                     506603                       # Simulator op (including micro ops) rate (op/s) ((Count/Second))
system.clk_domain.clock                          1000                       # Clock period in ticks (Tick)
system.cpu.numCycles                         39778252                       # Number of cpu cycles simulated (Cycle)
system.cpu.numWorkItemsStarted                      0                       # Number of work items this cpu started (Count)
system.cpu.numWorkItemsCompleted                    0                       # Number of work items this cpu completed (Count)
system.cpu.instsAdded                        96634528                       # Number of instructions added to the IQ (excludes non-spec) (Count)
system.cpu.nonSpecInstsAdded                   196990                       # Number of non-speculative instructions added to the IQ (Count)
system.cpu.instsIssued                       96407366                       # Number of instructions issued (Count)
system.cpu.squashedInstsIssued                 268987                       # Number of squashed instructions issued (Count)
system.cpu.squashedInstsExamined              6157470                       # Number of squashed instructions iterated over during squash; mainly for profiling (Count)
system.cpu.squashedOperandsExamined           4758189                       # Number of squashed operands that are examined and possibly removed from graph (Count)
system.cpu.squashedNonSpecRemoved                 179                       # Number of squashed non-spec instructions that were removed (Count)
system.cpu.numIssuedDist::samples            39016685                       # Number of insts issued each cycle (Count)
system.cpu.numIssuedDist::mean               2.470927                       # Number of insts issued each cycle (Count)
system.cpu.numIssuedDist::stdev              2.214555                       # Number of insts issued each cycle (Count)
system.cpu.numIssuedDist::underflows                0      0.00%      0.00% # Number of insts issued each cycle (Count)
system.cpu.numIssuedDist::0                  10325486     26.46%     26.46% # Number of insts issued each cycle (Count)
system.cpu.numIssuedDist::1                   5252131     13.46%     39.93% # Number of insts issued each cycle (Count)
system.cpu.numIssuedDist::2                   6020084     15.43%     55.36% # Number of insts issued each cycle (Count)
system.cpu.numIssuedDist::3                   5955206     15.26%     70.62% # Number of insts issued each cycle (Count)
system.cpu.numIssuedDist::4                   4227610     10.84%     81.45% # Number of insts issued each cycle (Count)
system.cpu.numIssuedDist::5                   2307479      5.91%     87.37% # Number of insts issued each cycle (Count)
system.cpu.numIssuedDist::6                   2643748      6.78%     94.14% # Number of insts issued each cycle (Count)
system.cpu.numIssuedDist::7                   1340402      3.44%     97.58% # Number of insts issued each cycle (Count)
system.cpu.numIssuedDist::8                    944539      2.42%    100.00% # Number of insts issued each cycle (Count)
system.cpu.numIssuedDist::overflows                 0      0.00%    100.00% # Number of insts issued each cycle (Count)
system.cpu.numIssuedDist::min_value                 0                       # Number of insts issued each cycle (Count)
system.cpu.numIssuedDist::max_value                 8                       # Number of insts issued each cycle (Count)
system.cpu.numIssuedDist::total              39016685                       # Number of insts issued each cycle (Count)
system.cpu.statFuBusy::No_OpClass                   0      0.00%      0.00% # attempts to use FU when none available (Count)
system.cpu.statFuBusy::IntAlu                  362836     13.93%     13.93% # attempts to use FU when none available (Count)
system.cpu.statFuBusy::IntMult                 153381      5.89%     19.82% # attempts to use FU when none available (Count)
system.cpu.statFuBusy::IntDiv                       0      0.00%     19.82% # attempts to use FU when none available (Count)
system.cpu.statFuBusy::FloatAdd                     0      0.00%     19.82% # attempts to use FU when none available (Count)
system.cpu.statFuBusy::FloatCmp                     0      0.00%     19.82% # attempts to use FU when none available (Count)
system.cpu.statFuBusy::FloatCvt                     0      0.00%     19.82% # attempts to use FU when none available (Count)
system.cpu.statFuBusy::FloatMult                    0      0.00%     19.82% # attempts to use FU when none available (Count)
system.cpu.statFuBusy::FloatMultAcc                 0      0.00%     19.82% # attempts to use FU when none available (Count)
system.cpu.statFuBusy::FloatDiv                     0      0.00%     19.82% # attempts to use FU when none available (Count)
system.cpu.statFuBusy::FloatMisc                    0      0.00%     19.82% # attempts to use FU when none available (Count)
system.cpu.statFuBusy::FloatSqrt                    0      0.00%     19.82% # attempts to use FU when none available (Count)
system.cpu.statFuBusy::SimdAdd                      0      0.00%     19.82% # attempts to use FU when none available (Count)
system.cpu.statFuBusy::SimdAddAcc                   0      0.00%     19.82% # attempts to use FU when none available (Count)
system.cpu.statFuBusy::SimdAlu                      1      0.00%     19.82% # attempts to use FU when none available (Count)
system.cpu.statFuBusy::SimdCmp                      7      0.00%     19.82% # attempts to use FU when none available (Count)
system.cpu.statFuBusy::SimdCvt                      0      0.00%     19.82% # attempts to use FU when none available (Count)
system.cpu.statFuBusy::SimdMisc                     0      0.00%     19.82% # attempts to use FU when none available (Count)
system.cpu.statFuBusy::SimdMult                     0      0.00%     19.82% # attempts to use FU when none available (Count)
system.cpu.statFuBusy::SimdMultAcc                  0      0.00%     19.82% # attempts to use FU when none available (Count)
system.cpu.statFuBusy::SimdShift                    0      0.00%     19.82% # attempts to use FU when none available (Count)
system.cpu.statFuBusy::SimdShiftAcc                 0      0.00%     19.82% # attempts to use FU when none available (Count)
system.cpu.statFuBusy::SimdDiv                      0      0.00%     19.82% # attempts to use FU when none available (Count)
system.cpu.statFuBusy::SimdSqrt                     0      0.00%     19.82% # attempts to use FU when none available (Count)
system.cpu.statFuBusy::SimdFloatAdd                 0      0.00%     19.82% # attempts to use FU when none available (Count)
system.cpu.statFuBusy::SimdFloatAlu                 0      0.00%     19.82% # attempts to use FU when none available (Count)
system.cpu.statFuBusy::SimdFloatCmp                 0      0.00%     19.82% # attempts to use FU when none available (Count)
system.cpu.statFuBusy::SimdFloatCvt                 0      0.00%     19.82% # attempts to use FU when none available (Count)
system.cpu.statFuBusy::SimdFloatDiv                 0      0.00%     19.82% # attempts to use FU when none available (Count)
system.cpu.statFuBusy::SimdFloatMisc                0      0.00%     19.82% # attempts to use FU when none available (Count)
system.cpu.statFuBusy::SimdFloatMult                0      0.00%     19.82% # attempts to use FU when none available (Count)
system.cpu.statFuBusy::SimdFloatMultAcc             0      0.00%     19.82% # attempts to use FU when none available (Count)
system.cpu.statFuBusy::SimdFloatSqrt                0      0.00%     19.82% # attempts to use FU when none available (Count)
system.cpu.statFuBusy::SimdReduceAdd                0      0.00%     19.82% # attempts to use FU when none available (Count)
system.cpu.statFuBusy::SimdReduceAlu                0      0.00%     19.82% # attempts to use FU when none available (Count)
system.cpu.statFuBusy::SimdReduceCmp                0      0.00%     19.82% # attempts to use FU when none available (Count)
system.cpu.statFuBusy::SimdFloatReduceAdd            0      0.00%     19.82% # attempts to use FU when none available (Count)
system.cpu.statFuBusy::SimdFloatReduceCmp            0      0.00%     19.82% # attempts to use FU when none available (Count)
system.cpu.statFuBusy::SimdAes                      0      0.00%     19.82% # attempts to use FU when none available (Count)
system.cpu.statFuBusy::SimdAesMix                   0      0.00%     19.82% # attempts to use FU when none available (Count)
system.cpu.statFuBusy::SimdSha1Hash                 0      0.00%     19.82% # attempts to use FU when none available (Count)
system.cpu.statFuBusy::SimdSha1Hash2                0      0.00%     19.82% # attempts to use FU when none available (Count)
system.cpu.statFuBusy::SimdSha256Hash               0      0.00%     19.82% # attempts to use FU when none available (Count)
system.cpu.statFuBusy::SimdSha256Hash2              0      0.00%     19.82% # attempts to use FU when none available (Count)
system.cpu.statFuBusy::SimdShaSigma2                0      0.00%     19.82% # attempts to use FU when none available (Count)
system.cpu.statFuBusy::SimdShaSigma3                0      0.00%     19.82% # attempts to use FU when none available (Count)
system.cpu.statFuBusy::SimdPredAlu                  0      0.00%     19.82% # attempts to use FU when none available (Count)
system.cpu.statFuBusy::MemRead                 996037     38.25%     58.07% # attempts to use FU when none available (Count)
system.cpu.statFuBusy::MemWrite               1091878     41.93%    100.00% # attempts to use FU when none available (Count)
system.cpu.statFuBusy::FloatMemRead                 0      0.00%    100.00% # attempts to use FU when none available (Count)
system.cpu.statFuBusy::FloatMemWrite                0      0.00%    100.00% # attempts to use FU when none available (Count)
system.cpu.statFuBusy::IprAccess                    0      0.00%    100.00% # attempts to use FU when none available (Count)
system.cpu.statFuBusy::InstPrefetch                 0      0.00%    100.00% # attempts to use FU when none available (Count)
system.cpu.statIssuedInstType_0::No_OpClass       131153      0.14%      0.14% # Number of instructions issued per FU type, per thread (Count)
system.cpu.statIssuedInstType_0::IntAlu      62325988     64.65%     64.78% # Number of instructions issued per FU type, per thread (Count)
system.cpu.statIssuedInstType_0::IntMult       789281      0.82%     65.60% # Number of instructions issued per FU type, per thread (Count)
system.cpu.statIssuedInstType_0::IntDiv         88159      0.09%     65.69% # Number of instructions issued per FU type, per thread (Count)
system.cpu.statIssuedInstType_0::FloatAdd         6825      0.01%     65.70% # Number of instructions issued per FU type, per thread (Count)
system.cpu.statIssuedInstType_0::FloatCmp        67354      0.07%     65.77% # Number of instructions issued per FU type, per thread (Count)
system.cpu.statIssuedInstType_0::FloatCvt            0      0.00%     65.77% # Number of instructions issued per FU type, per thread (Count)
system.cpu.statIssuedInstType_0::FloatMult         5940      0.01%     65.78% # Number of instructions issued per FU type, per thread (Count)
system.cpu.statIssuedInstType_0::FloatMultAcc            0      0.00%     65.78% # Number of instructions issued per FU type, per thread (Count)
system.cpu.statIssuedInstType_0::FloatDiv            0      0.00%     65.78% # Number of instructions issued per FU type, per thread (Count)
system.cpu.statIssuedInstType_0::FloatMisc        55717      0.06%     65.84% # Number of instructions issued per FU type, per thread (Count)
system.cpu.statIssuedInstType_0::FloatSqrt            0      0.00%     65.84% # Number of instructions issued per FU type, per thread (Count)
system.cpu.statIssuedInstType_0::SimdAdd        65584      0.07%     65.90% # Number of instructions issued per FU type, per thread (Count)
system.cpu.statIssuedInstType_0::SimdAddAcc            0      0.00%     65.90% # Number of instructions issued per FU type, per thread (Count)
system.cpu.statIssuedInstType_0::SimdAlu       131140      0.14%     66.04% # Number of instructions issued per FU type, per thread (Count)
system.cpu.statIssuedInstType_0::SimdCmp       131136      0.14%     66.18% # Number of instructions issued per FU type, per thread (Count)
system.cpu.statIssuedInstType_0::SimdCvt            0      0.00%     66.18% # Number of instructions issued per FU type, per thread (Count)
system.cpu.statIssuedInstType_0::SimdMisc       129482      0.13%     66.31% # Number of instructions issued per FU type, per thread (Count)
system.cpu.statIssuedInstType_0::SimdMult            0      0.00%     66.31% # Number of instructions issued per FU type, per thread (Count)
system.cpu.statIssuedInstType_0::SimdMultAcc            0      0.00%     66.31% # Number of instructions issued per FU type, per thread (Count)
system.cpu.statIssuedInstType_0::SimdShift            0      0.00%     66.31% # Number of instructions issued per FU type, per thread (Count)
system.cpu.statIssuedInstType_0::SimdShiftAcc            0      0.00%     66.31% # Number of instructions issued per FU type, per thread (Count)
system.cpu.statIssuedInstType_0::SimdDiv            0      0.00%     66.31% # Number of instructions issued per FU type, per thread (Count)
system.cpu.statIssuedInstType_0::SimdSqrt            0      0.00%     66.31% # Number of instructions issued per FU type, per thread (Count)
system.cpu.statIssuedInstType_0::SimdFloatAdd            0      0.00%     66.31% # Number of instructions issued per FU type, per thread (Count)
system.cpu.statIssuedInstType_0::SimdFloatAlu            0      0.00%     66.31% # Number of instructions issued per FU type, per thread (Count)
system.cpu.statIssuedInstType_0::SimdFloatCmp            0      0.00%     66.31% # Number of instructions issued per FU type, per thread (Count)
system.cpu.statIssuedInstType_0::SimdFloatCvt            0      0.00%     66.31% # Number of instructions issued per FU type, per thread (Count)
system.cpu.statIssuedInstType_0::SimdFloatDiv            0      0.00%     66.31% # Number of instructions issued per FU type, per thread (Count)
system.cpu.statIssuedInstType_0::SimdFloatMisc            0      0.00%     66.31% # Number of instructions issued per FU type, per thread (Count)
system.cpu.statIssuedInstType_0::SimdFloatMult            0      0.00%     66.31% # Number of instructions issued per FU type, per thread (Count)
system.cpu.statIssuedInstType_0::SimdFloatMultAcc            0      0.00%     66.31% # Number of instructions issued per FU type, per thread (Count)
system.cpu.statIssuedInstType_0::SimdFloatSqrt            0      0.00%     66.31% # Number of instructions issued per FU type, per thread (Count)
system.cpu.statIssuedInstType_0::SimdReduceAdd            0      0.00%     66.31% # Number of instructions issued per FU type, per thread (Count)
system.cpu.statIssuedInstType_0::SimdReduceAlu            0      0.00%     66.31% # Number of instructions issued per FU type, per thread (Count)
system.cpu.statIssuedInstType_0::SimdReduceCmp            0      0.00%     66.31% # Number of instructions issued per FU type, per thread (Count)
system.cpu.statIssuedInstType_0::SimdFloatReduceAdd            0      0.00%     66.31% # Number of instructions issued per FU type, per thread (Count)
system.cpu.statIssuedInstType_0::SimdFloatReduceCmp            0      0.00%     66.31% # Number of instructions issued per FU type, per thread (Count)
system.cpu.statIssuedInstType_0::SimdAes            0      0.00%     66.31% # Number of instructions issued per FU type, per thread (Count)
system.cpu.statIssuedInstType_0::SimdAesMix            0      0.00%     66.31% # Number of instructions issued per FU type, per thread (Count)
system.cpu.statIssuedInstType_0::SimdSha1Hash            0      0.00%     66.31% # Number of instructions issued per FU type, per thread (Count)
system.cpu.statIssuedInstType_0::SimdSha1Hash2            0      0.00%     66.31% # Number of instructions issued per FU type, per thread (Count)
system.cpu.statIssuedInstType_0::SimdSha256Hash            0      0.00%     66.31% # Number of instructions issued per FU type, per thread (Count)
system.cpu.statIssuedInstType_0::SimdSha256Hash2            0      0.00%     66.31% # Number of instructions issued per FU type, per thread (Count)
system.cpu.statIssuedInstType_0::SimdShaSigma2            0      0.00%     66.31% # Number of instructions issued per FU type, per thread (Count)
system.cpu.statIssuedInstType_0::SimdShaSigma3            0      0.00%     66.31% # Number of instructions issued per FU type, per thread (Count)
system.cpu.statIssuedInstType_0::SimdPredAlu            0      0.00%     66.31% # Number of instructions issued per FU type, per thread (Count)
system.cpu.statIssuedInstType_0::MemRead     19893584     20.63%     86.94% # Number of instructions issued per FU type, per thread (Count)
system.cpu.statIssuedInstType_0::MemWrite     12586023     13.06%    100.00% # Number of instructions issued per FU type, per thread (Count)
system.cpu.statIssuedInstType_0::FloatMemRead            0      0.00%    100.00% # Number of instructions issued per FU type, per thread (Count)
system.cpu.statIssuedInstType_0::FloatMemWrite            0      0.00%    100.00% # Number of instructions issued per FU type, per thread (Count)
system.cpu.statIssuedInstType_0::IprAccess            0      0.00%    100.00% # Number of instructions issued per FU type, per thread (Count)
system.cpu.statIssuedInstType_0::InstPrefetch            0      0.00%    100.00% # Number of instructions issued per FU type, per thread (Count)
system.cpu.statIssuedInstType_0::total       96407366                       # Number of instructions issued per FU type, per thread (Count)
system.cpu.issueRate                         2.423620                       # Inst issue rate ((Count/Cycle))
system.cpu.fuBusy                             2604140                       # FU busy when requested (Count)
system.cpu.fuBusyRate                        0.027012                       # FU busy rate (busy events/executed inst) ((Count/Count))
system.cpu.intInstQueueReads                229736869                       # Number of integer instruction queue reads (Count)
system.cpu.intInstQueueWrites                99772510                       # Number of integer instruction queue writes (Count)
system.cpu.intInstQueueWakeupAccesses        92475850                       # Number of integer instruction queue wakeup accesses (Count)
system.cpu.fpInstQueueReads                         0                       # Number of floating instruction queue reads (Count)
system.cpu.fpInstQueueWrites                        0                       # Number of floating instruction queue writes (Count)
system.cpu.fpInstQueueWakeupAccesses                0                       # Number of floating instruction queue wakeup accesses (Count)
system.cpu.vecInstQueueReads                  4967675                       # Number of vector instruction queue reads (Count)
system.cpu.vecInstQueueWrites                 3269852                       # Number of vector instruction queue writes (Count)
system.cpu.vecInstQueueWakeupAccesses         1988756                       # Number of vector instruction queue wakeup accesses (Count)
system.cpu.intAluAccesses                    96337265                       # Number of integer alu accesses (Count)
system.cpu.fpAluAccesses                            0                       # Number of floating point alu accesses (Count)
system.cpu.vecAluAccesses                     2543088                       # Number of vector alu accesses (Count)
system.cpu.numInsts                          95855126                       # Number of executed instructions (Count)
system.cpu.numLoadInsts                      19824510                       # Number of load instructions executed (Count)
system.cpu.numSquashedInsts                    552240                       # Number of squashed instructions skipped in execute (Count)
system.cpu.numSwp                                   0                       # Number of swp insts executed (Count)
system.cpu.numNop                              107814                       # Number of nop insts executed (Count)
system.cpu.numRefs                           32167899                       # Number of memory reference insts executed (Count)
system.cpu.numBranches                       15886194                       # Number of branches executed (Count)
system.cpu.numStoreInsts                     12343389                       # Number of stores executed (Count)
system.cpu.numRate                           2.409737                       # Inst execution rate ((Count/Cycle))
system.cpu.timesIdled                           37805                       # Number of times that the entire CPU went into an idle state and unscheduled itself (Count)
system.cpu.idleCycles                          761567                       # Total number of cycles that the CPU has spent unscheduled due to idling (Cycle)
system.cpu.committedInsts                    82413470                       # Number of Instructions Simulated (Count)
system.cpu.committedOps                      90674047                       # Number of Ops (including micro ops) Simulated (Count)
system.cpu.cpi                               0.482667                       # CPI: Cycles Per Instruction ((Cycle/Count))
system.cpu.totalCpi                          0.482667                       # CPI: Total CPI of All Threads ((Cycle/Count))
system.cpu.ipc                               2.071822                       # IPC: Instructions Per Cycle ((Count/Cycle))
system.cpu.totalIpc                          2.071822                       # IPC: Total IPC of All Threads ((Count/Cycle))
system.cpu.intRegfileReads                  111539673                       # Number of integer regfile reads (Count)
system.cpu.intRegfileWrites                  68514303                       # Number of integer regfile writes (Count)
system.cpu.vecRegfileReads                    2107686                       # number of vector regfile reads (Count)
system.cpu.vecRegfileWrites                    709750                       # number of vector regfile writes (Count)
system.cpu.ccRegfileReads                    29212506                       # number of cc regfile reads (Count)
system.cpu.ccRegfileWrites                   29061760                       # number of cc regfile writes (Count)
system.cpu.miscRegfileReads                 181521267                       # number of misc regfile reads (Count)
system.cpu.miscRegfileWrites                   290689                       # number of misc regfile writes (Count)
system.cpu.MemDepUnit__0.insertedLoads       18901586                       # Number of loads inserted to the mem dependence unit. (Count)
system.cpu.MemDepUnit__0.insertedStores      13279399                       # Number of stores inserted to the mem dependence unit. (Count)
system.cpu.MemDepUnit__0.conflictingLoads      4044285                       # Number of conflicting loads. (Count)
system.cpu.MemDepUnit__0.conflictingStores      1494824                       # Number of conflicting stores. (Count)
system.cpu.MemDepUnit__1.insertedLoads              0                       # Number of loads inserted to the mem dependence unit. (Count)
system.cpu.MemDepUnit__1.insertedStores             0                       # Number of stores inserted to the mem dependence unit. (Count)
system.cpu.MemDepUnit__1.conflictingLoads            0                       # Number of conflicting loads. (Count)
system.cpu.MemDepUnit__1.conflictingStores            0                       # Number of conflicting stores. (Count)
system.cpu.MemDepUnit__2.insertedLoads              0                       # Number of loads inserted to the mem dependence unit. (Count)
system.cpu.MemDepUnit__2.insertedStores             0                       # Number of stores inserted to the mem dependence unit. (Count)
system.cpu.MemDepUnit__2.conflictingLoads            0                       # Number of conflicting loads. (Count)
system.cpu.MemDepUnit__2.conflictingStores            0                       # Number of conflicting stores. (Count)
system.cpu.MemDepUnit__3.insertedLoads              0                       # Number of loads inserted to the mem dependence unit. (Count)
system.cpu.MemDepUnit__3.insertedStores             0                       # Number of stores inserted to the mem dependence unit. (Count)
system.cpu.MemDepUnit__3.conflictingLoads            0                       # Number of conflicting loads. (Count)
system.cpu.MemDepUnit__3.conflictingStores            0                       # Number of conflicting stores. (Count)
system.cpu.branchPred.lookups                16551050                       # Number of BP lookups (Count)
system.cpu.branchPred.condPredicted          12251010                       # Number of conditional branches predicted (Count)
system.cpu.branchPred.condIncorrect            125796                       # Number of conditional branches incorrect (Count)
system.cpu.branchPred.BTBLookups              8392245                       # Number of BTB lookups (Count)
system.cpu.branchPred.BTBHits                 8373033                       # Number of BTB hits (Count)
system.cpu.branchPred.BTBHitRatio            0.997711                       # BTB Hit Ratio (Ratio)
system.cpu.branchPred.RASUsed                  975111                       # Number of times the RAS was used to get a target. (Count)
system.cpu.branchPred.RASIncorrect                 28                       # Number of incorrect RAS predictions. (Count)
system.cpu.branchPred.indirectLookups          220347                       # Number of indirect predictor lookups. (Count)
system.cpu.branchPred.indirectHits             206808                       # Number of indirect target hits. (Count)
system.cpu.branchPred.indirectMisses            13539                       # Number of indirect misses. (Count)
system.cpu.branchPred.indirectMispredicted          200                       # Number of mispredicted indirect branches. (Count)
system.cpu.commit.commitSquashedInsts         6162077                       # The number of squashed insts skipped by commit (Count)
system.cpu.commit.commitNonSpecStalls          196811                       # The number of times commit has been forced to stall to communicate backwards (Count)
system.cpu.commit.branchMispredicts            120732                       # The number of times a branch was mispredicted (Count)
system.cpu.commit.numCommittedDist::samples     38150935                       # Number of insts commited each cycle (Count)
system.cpu.commit.numCommittedDist::mean     2.379424                       # Number of insts commited each cycle (Count)
system.cpu.commit.numCommittedDist::stdev     2.944015                       # Number of insts commited each cycle (Count)
system.cpu.commit.numCommittedDist::underflows            0      0.00%      0.00% # Number of insts commited each cycle (Count)
system.cpu.commit.numCommittedDist::0        14694575     38.52%     38.52% # Number of insts commited each cycle (Count)
system.cpu.commit.numCommittedDist::1         7980142     20.92%     59.43% # Number of insts commited each cycle (Count)
system.cpu.commit.numCommittedDist::2         3260132      8.55%     67.98% # Number of insts commited each cycle (Count)
system.cpu.commit.numCommittedDist::3         2009859      5.27%     73.25% # Number of insts commited each cycle (Count)
system.cpu.commit.numCommittedDist::4         1609248      4.22%     77.47% # Number of insts commited each cycle (Count)
system.cpu.commit.numCommittedDist::5          635841      1.67%     79.13% # Number of insts commited each cycle (Count)
system.cpu.commit.numCommittedDist::6         1132283      2.97%     82.10% # Number of insts commited each cycle (Count)
system.cpu.commit.numCommittedDist::7          793464      2.08%     84.18% # Number of insts commited each cycle (Count)
system.cpu.commit.numCommittedDist::8         6035391     15.82%    100.00% # Number of insts commited each cycle (Count)
system.cpu.commit.numCommittedDist::overflows            0      0.00%    100.00% # Number of insts commited each cycle (Count)
system.cpu.commit.numCommittedDist::min_value            0                       # Number of insts commited each cycle (Count)
system.cpu.commit.numCommittedDist::max_value            8                       # Number of insts commited each cycle (Count)
system.cpu.commit.numCommittedDist::total     38150935                       # Number of insts commited each cycle (Count)
system.cpu.commit.instsCommitted             82516677                       # Number of instructions committed (Count)
system.cpu.commit.opsCommitted               90777254                       # Number of ops (including micro ops) committed (Count)
system.cpu.commit.memRefs                    29536571                       # Number of memory references committed (Count)
system.cpu.commit.loads                      18098304                       # Number of loads committed (Count)
system.cpu.commit.amos                          98358                       # Number of atomic instructions committed (Count)
system.cpu.commit.membars                       98368                       # Number of memory barriers committed (Count)
system.cpu.commit.branches                   15560287                       # Number of branches committed (Count)
system.cpu.commit.vectorInstructions          1628812                       # Number of committed Vector instructions. (Count)
system.cpu.commit.floating                          0                       # Number of committed floating point instructions. (Count)
system.cpu.commit.integer                    80489063                       # Number of committed integer instructions. (Count)
system.cpu.commit.functionCalls                932339                       # Number of function calls committed. (Count)
system.cpu.commit.committedInstType_0::No_OpClass       131142      0.14%      0.14% # Class of committed instruction (Count)
system.cpu.commit.committedInstType_0::IntAlu     59643722     65.70%     65.85% # Class of committed instruction (Count)
system.cpu.commit.committedInstType_0::IntMult       788969      0.87%     66.72% # Class of committed instruction (Count)
system.cpu.commit.committedInstType_0::IntDiv        88024      0.10%     66.81% # Class of committed instruction (Count)
system.cpu.commit.committedInstType_0::FloatAdd         6825      0.01%     66.82% # Class of committed instruction (Count)
system.cpu.commit.committedInstType_0::FloatCmp        65536      0.07%     66.89% # Class of committed instruction (Count)
system.cpu.commit.committedInstType_0::FloatCvt            0      0.00%     66.89% # Class of committed instruction (Count)
system.cpu.commit.committedInstType_0::FloatMult         5187      0.01%     66.90% # Class of committed instruction (Count)
system.cpu.commit.committedInstType_0::FloatMultAcc            0      0.00%     66.90% # Class of committed instruction (Count)
system.cpu.commit.committedInstType_0::FloatDiv            0      0.00%     66.90% # Class of committed instruction (Count)
system.cpu.commit.committedInstType_0::FloatMisc        54066      0.06%     66.96% # Class of committed instruction (Count)
system.cpu.commit.committedInstType_0::FloatSqrt            0      0.00%     66.96% # Class of committed instruction (Count)
system.cpu.commit.committedInstType_0::SimdAdd        65560      0.07%     67.03% # Class of committed instruction (Count)
system.cpu.commit.committedInstType_0::SimdAddAcc            0      0.00%     67.03% # Class of committed instruction (Count)
system.cpu.commit.committedInstType_0::SimdAlu       131100      0.14%     67.18% # Class of committed instruction (Count)
system.cpu.commit.committedInstType_0::SimdCmp       131096      0.14%     67.32% # Class of committed instruction (Count)
system.cpu.commit.committedInstType_0::SimdCvt            0      0.00%     67.32% # Class of committed instruction (Count)
system.cpu.commit.committedInstType_0::SimdMisc       129456      0.14%     67.46% # Class of committed instruction (Count)
system.cpu.commit.committedInstType_0::SimdMult            0      0.00%     67.46% # Class of committed instruction (Count)
system.cpu.commit.committedInstType_0::SimdMultAcc            0      0.00%     67.46% # Class of committed instruction (Count)
system.cpu.commit.committedInstType_0::SimdShift            0      0.00%     67.46% # Class of committed instruction (Count)
system.cpu.commit.committedInstType_0::SimdShiftAcc            0      0.00%     67.46% # Class of committed instruction (Count)
system.cpu.commit.committedInstType_0::SimdDiv            0      0.00%     67.46% # Class of committed instruction (Count)
system.cpu.commit.committedInstType_0::SimdSqrt            0      0.00%     67.46% # Class of committed instruction (Count)
system.cpu.commit.committedInstType_0::SimdFloatAdd            0      0.00%     67.46% # Class of committed instruction (Count)
system.cpu.commit.committedInstType_0::SimdFloatAlu            0      0.00%     67.46% # Class of committed instruction (Count)
system.cpu.commit.committedInstType_0::SimdFloatCmp            0      0.00%     67.46% # Class of committed instruction (Count)
system.cpu.commit.committedInstType_0::SimdFloatCvt            0      0.00%     67.46% # Class of committed instruction (Count)
system.cpu.commit.committedInstType_0::SimdFloatDiv            0      0.00%     67.46% # Class of committed instruction (Count)
system.cpu.commit.committedInstType_0::SimdFloatMisc            0      0.00%     67.46% # Class of committed instruction (Count)
system.cpu.commit.committedInstType_0::SimdFloatMult            0      0.00%     67.46% # Class of committed instruction (Count)
system.cpu.commit.committedInstType_0::SimdFloatMultAcc            0      0.00%     67.46% # Class of committed instruction (Count)
system.cpu.commit.committedInstType_0::SimdFloatSqrt            0      0.00%     67.46% # Class of committed instruction (Count)
system.cpu.commit.committedInstType_0::SimdReduceAdd            0      0.00%     67.46% # Class of committed instruction (Count)
system.cpu.commit.committedInstType_0::SimdReduceAlu            0      0.00%     67.46% # Class of committed instruction (Count)
system.cpu.commit.committedInstType_0::SimdReduceCmp            0      0.00%     67.46% # Class of committed instruction (Count)
system.cpu.commit.committedInstType_0::SimdFloatReduceAdd            0      0.00%     67.46% # Class of committed instruction (Count)
system.cpu.commit.committedInstType_0::SimdFloatReduceCmp            0      0.00%     67.46% # Class of committed instruction (Count)
system.cpu.commit.committedInstType_0::SimdAes            0      0.00%     67.46% # Class of committed instruction (Count)
system.cpu.commit.committedInstType_0::SimdAesMix            0      0.00%     67.46% # Class of committed instruction (Count)
system.cpu.commit.committedInstType_0::SimdSha1Hash            0      0.00%     67.46% # Class of committed instruction (Count)
system.cpu.commit.committedInstType_0::SimdSha1Hash2            0      0.00%     67.46% # Class of committed instruction (Count)
system.cpu.commit.committedInstType_0::SimdSha256Hash            0      0.00%     67.46% # Class of committed instruction (Count)
system.cpu.commit.committedInstType_0::SimdSha256Hash2            0      0.00%     67.46% # Class of committed instruction (Count)
system.cpu.commit.committedInstType_0::SimdShaSigma2            0      0.00%     67.46% # Class of committed instruction (Count)
system.cpu.commit.committedInstType_0::SimdShaSigma3            0      0.00%     67.46% # Class of committed instruction (Count)
system.cpu.commit.committedInstType_0::SimdPredAlu            0      0.00%     67.46% # Class of committed instruction (Count)
system.cpu.commit.committedInstType_0::MemRead     18098304     19.94%     87.40% # Class of committed instruction (Count)
system.cpu.commit.committedInstType_0::MemWrite     11438267     12.60%    100.00% # Class of committed instruction (Count)
system.cpu.commit.committedInstType_0::FloatMemRead            0      0.00%    100.00% # Class of committed instruction (Count)
system.cpu.commit.committedInstType_0::FloatMemWrite            0      0.00%    100.00% # Class of committed instruction (Count)
system.cpu.commit.committedInstType_0::IprAccess            0      0.00%    100.00% # Class of committed instruction (Count)
system.cpu.commit.committedInstType_0::InstPrefetch            0      0.00%    100.00% # Class of committed instruction (Count)
system.cpu.commit.committedInstType_0::total     90777254                       # Class of committed instruction (Count)
system.cpu.commit.commitEligibleSamples       6035391                       # number cycles where commit BW limit reached (Cycle)
system.cpu.dcache.demandHits::cpu.data       26523250                       # number of demand (read+write) hits (Count)
system.cpu.dcache.demandHits::total          26523250                       # number of demand (read+write) hits (Count)
system.cpu.dcache.overallHits::cpu.data      26573376                       # number of overall hits (Count)
system.cpu.dcache.overallHits::total         26573376                       # number of overall hits (Count)
system.cpu.dcache.demandMisses::cpu.data       140647                       # number of demand (read+write) misses (Count)
system.cpu.dcache.demandMisses::total          140647                       # number of demand (read+write) misses (Count)
system.cpu.dcache.overallMisses::cpu.data       140652                       # number of overall misses (Count)
system.cpu.dcache.overallMisses::total         140652                       # number of overall misses (Count)
system.cpu.dcache.demandMissLatency::cpu.data   9965681744                       # number of demand (read+write) miss ticks (Tick)
system.cpu.dcache.demandMissLatency::total   9965681744                       # number of demand (read+write) miss ticks (Tick)
system.cpu.dcache.overallMissLatency::cpu.data   9965681744                       # number of overall miss ticks (Tick)
system.cpu.dcache.overallMissLatency::total   9965681744                       # number of overall miss ticks (Tick)
system.cpu.dcache.demandAccesses::cpu.data     26663897                       # number of demand (read+write) accesses (Count)
system.cpu.dcache.demandAccesses::total      26663897                       # number of demand (read+write) accesses (Count)
system.cpu.dcache.overallAccesses::cpu.data     26714028                       # number of overall (read+write) accesses (Count)
system.cpu.dcache.overallAccesses::total     26714028                       # number of overall (read+write) accesses (Count)
system.cpu.dcache.demandMissRate::cpu.data     0.005275                       # miss rate for demand accesses (Ratio)
system.cpu.dcache.demandMissRate::total      0.005275                       # miss rate for demand accesses (Ratio)
system.cpu.dcache.overallMissRate::cpu.data     0.005265                       # miss rate for overall accesses (Ratio)
system.cpu.dcache.overallMissRate::total     0.005265                       # miss rate for overall accesses (Ratio)
system.cpu.dcache.demandAvgMissLatency::cpu.data 70855.985154                       # average overall miss latency ((Cycle/Count))
system.cpu.dcache.demandAvgMissLatency::total 70855.985154                       # average overall miss latency ((Cycle/Count))
system.cpu.dcache.overallAvgMissLatency::cpu.data 70853.466314                       # average overall miss latency ((Cycle/Count))
system.cpu.dcache.overallAvgMissLatency::total 70853.466314                       # average overall miss latency ((Cycle/Count))
system.cpu.dcache.blockedCycles::no_mshrs       803172                       # number of cycles access was blocked (Cycle)
system.cpu.dcache.blockedCycles::no_targets            0                       # number of cycles access was blocked (Cycle)
system.cpu.dcache.blockedCauses::no_mshrs        17628                       # number of times access was blocked (Count)
system.cpu.dcache.blockedCauses::no_targets            0                       # number of times access was blocked (Count)
system.cpu.dcache.avgBlocked::no_mshrs      45.562287                       # average number of cycles each access was blocked ((Cycle/Count))
system.cpu.dcache.avgBlocked::no_targets          nan                       # average number of cycles each access was blocked ((Cycle/Count))
system.cpu.dcache.writebacks::writebacks        17128                       # number of writebacks (Count)
system.cpu.dcache.writebacks::total             17128                       # number of writebacks (Count)
system.cpu.dcache.demandMshrHits::cpu.data       107799                       # number of demand (read+write) MSHR hits (Count)
system.cpu.dcache.demandMshrHits::total        107799                       # number of demand (read+write) MSHR hits (Count)
system.cpu.dcache.overallMshrHits::cpu.data       107799                       # number of overall MSHR hits (Count)
system.cpu.dcache.overallMshrHits::total       107799                       # number of overall MSHR hits (Count)
system.cpu.dcache.demandMshrMisses::cpu.data        32848                       # number of demand (read+write) MSHR misses (Count)
system.cpu.dcache.demandMshrMisses::total        32848                       # number of demand (read+write) MSHR misses (Count)
system.cpu.dcache.overallMshrMisses::cpu.data        32853                       # number of overall MSHR misses (Count)
system.cpu.dcache.overallMshrMisses::total        32853                       # number of overall MSHR misses (Count)
system.cpu.dcache.demandMshrMissLatency::cpu.data   2542445664                       # number of demand (read+write) MSHR miss ticks (Tick)
system.cpu.dcache.demandMshrMissLatency::total   2542445664                       # number of demand (read+write) MSHR miss ticks (Tick)
system.cpu.dcache.overallMshrMissLatency::cpu.data   2542796164                       # number of overall MSHR miss ticks (Tick)
system.cpu.dcache.overallMshrMissLatency::total   2542796164                       # number of overall MSHR miss ticks (Tick)
system.cpu.dcache.demandMshrMissRate::cpu.data     0.001232                       # mshr miss ratio for demand accesses (Ratio)
system.cpu.dcache.demandMshrMissRate::total     0.001232                       # mshr miss ratio for demand accesses (Ratio)
system.cpu.dcache.overallMshrMissRate::cpu.data     0.001230                       # mshr miss ratio for overall accesses (Ratio)
system.cpu.dcache.overallMshrMissRate::total     0.001230                       # mshr miss ratio for overall accesses (Ratio)
system.cpu.dcache.demandAvgMshrMissLatency::cpu.data 77400.318558                       # average overall mshr miss latency ((Cycle/Count))
system.cpu.dcache.demandAvgMshrMissLatency::total 77400.318558                       # average overall mshr miss latency ((Cycle/Count))
system.cpu.dcache.overallAvgMshrMissLatency::cpu.data 77399.207500                       # average overall mshr miss latency ((Cycle/Count))
system.cpu.dcache.overallAvgMshrMissLatency::total 77399.207500                       # average overall mshr miss latency ((Cycle/Count))
system.cpu.dcache.replacements                  31832                       # number of replacements (Count)
system.cpu.dcache.LoadLockedReq.hits::cpu.data           41                       # number of LoadLockedReq hits (Count)
system.cpu.dcache.LoadLockedReq.hits::total           41                       # number of LoadLockedReq hits (Count)
system.cpu.dcache.LoadLockedReq.misses::cpu.data            6                       # number of LoadLockedReq misses (Count)
system.cpu.dcache.LoadLockedReq.misses::total            6                       # number of LoadLockedReq misses (Count)
system.cpu.dcache.LoadLockedReq.missLatency::cpu.data       406500                       # number of LoadLockedReq miss ticks (Tick)
system.cpu.dcache.LoadLockedReq.missLatency::total       406500                       # number of LoadLockedReq miss ticks (Tick)
system.cpu.dcache.LoadLockedReq.accesses::cpu.data           47                       # number of LoadLockedReq accesses(hits+misses) (Count)
system.cpu.dcache.LoadLockedReq.accesses::total           47                       # number of LoadLockedReq accesses(hits+misses) (Count)
system.cpu.dcache.LoadLockedReq.missRate::cpu.data     0.127660                       # miss rate for LoadLockedReq accesses (Ratio)
system.cpu.dcache.LoadLockedReq.missRate::total     0.127660                       # miss rate for LoadLockedReq accesses (Ratio)
system.cpu.dcache.LoadLockedReq.avgMissLatency::cpu.data        67750                       # average LoadLockedReq miss latency ((Tick/Count))
system.cpu.dcache.LoadLockedReq.avgMissLatency::total        67750                       # average LoadLockedReq miss latency ((Tick/Count))
system.cpu.dcache.LoadLockedReq.mshrHits::cpu.data            3                       # number of LoadLockedReq MSHR hits (Count)
system.cpu.dcache.LoadLockedReq.mshrHits::total            3                       # number of LoadLockedReq MSHR hits (Count)
system.cpu.dcache.LoadLockedReq.mshrMisses::cpu.data            3                       # number of LoadLockedReq MSHR misses (Count)
system.cpu.dcache.LoadLockedReq.mshrMisses::total            3                       # number of LoadLockedReq MSHR misses (Count)
system.cpu.dcache.LoadLockedReq.mshrMissLatency::cpu.data       269500                       # number of LoadLockedReq MSHR miss ticks (Tick)
system.cpu.dcache.LoadLockedReq.mshrMissLatency::total       269500                       # number of LoadLockedReq MSHR miss ticks (Tick)
system.cpu.dcache.LoadLockedReq.mshrMissRate::cpu.data     0.063830                       # mshr miss rate for LoadLockedReq accesses (Ratio)
system.cpu.dcache.LoadLockedReq.mshrMissRate::total     0.063830                       # mshr miss rate for LoadLockedReq accesses (Ratio)
system.cpu.dcache.LoadLockedReq.avgMshrMissLatency::cpu.data 89833.333333                       # average LoadLockedReq mshr miss latency ((Tick/Count))
system.cpu.dcache.LoadLockedReq.avgMshrMissLatency::total 89833.333333                       # average LoadLockedReq mshr miss latency ((Tick/Count))
system.cpu.dcache.ReadReq.hits::cpu.data     15254075                       # number of ReadReq hits (Count)
system.cpu.dcache.ReadReq.hits::total        15254075                       # number of ReadReq hits (Count)
system.cpu.dcache.ReadReq.misses::cpu.data        69916                       # number of ReadReq misses (Count)
system.cpu.dcache.ReadReq.misses::total         69916                       # number of ReadReq misses (Count)
system.cpu.dcache.ReadReq.missLatency::cpu.data   4949067500                       # number of ReadReq miss ticks (Tick)
system.cpu.dcache.ReadReq.missLatency::total   4949067500                       # number of ReadReq miss ticks (Tick)
system.cpu.dcache.ReadReq.accesses::cpu.data     15323991                       # number of ReadReq accesses(hits+misses) (Count)
system.cpu.dcache.ReadReq.accesses::total     15323991                       # number of ReadReq accesses(hits+misses) (Count)
system.cpu.dcache.ReadReq.missRate::cpu.data     0.004563                       # miss rate for ReadReq accesses (Ratio)
system.cpu.dcache.ReadReq.missRate::total     0.004563                       # miss rate for ReadReq accesses (Ratio)
system.cpu.dcache.ReadReq.avgMissLatency::cpu.data 70785.907375                       # average ReadReq miss latency ((Tick/Count))
system.cpu.dcache.ReadReq.avgMissLatency::total 70785.907375                       # average ReadReq miss latency ((Tick/Count))
system.cpu.dcache.ReadReq.mshrHits::cpu.data        52489                       # number of ReadReq MSHR hits (Count)
system.cpu.dcache.ReadReq.mshrHits::total        52489                       # number of ReadReq MSHR hits (Count)
system.cpu.dcache.ReadReq.mshrMisses::cpu.data        17427                       # number of ReadReq MSHR misses (Count)
system.cpu.dcache.ReadReq.mshrMisses::total        17427                       # number of ReadReq MSHR misses (Count)
system.cpu.dcache.ReadReq.mshrMissLatency::cpu.data   1402762000                       # number of ReadReq MSHR miss ticks (Tick)
system.cpu.dcache.ReadReq.mshrMissLatency::total   1402762000                       # number of ReadReq MSHR miss ticks (Tick)
system.cpu.dcache.ReadReq.mshrMissRate::cpu.data     0.001137                       # mshr miss rate for ReadReq accesses (Ratio)
system.cpu.dcache.ReadReq.mshrMissRate::total     0.001137                       # mshr miss rate for ReadReq accesses (Ratio)
system.cpu.dcache.ReadReq.avgMshrMissLatency::cpu.data 80493.601882                       # average ReadReq mshr miss latency ((Tick/Count))
system.cpu.dcache.ReadReq.avgMshrMissLatency::total 80493.601882                       # average ReadReq mshr miss latency ((Tick/Count))
system.cpu.dcache.SoftPFReq.hits::cpu.data        50126                       # number of SoftPFReq hits (Count)
system.cpu.dcache.SoftPFReq.hits::total         50126                       # number of SoftPFReq hits (Count)
system.cpu.dcache.SoftPFReq.misses::cpu.data            5                       # number of SoftPFReq misses (Count)
system.cpu.dcache.SoftPFReq.misses::total            5                       # number of SoftPFReq misses (Count)
system.cpu.dcache.SoftPFReq.accesses::cpu.data        50131                       # number of SoftPFReq accesses(hits+misses) (Count)
system.cpu.dcache.SoftPFReq.accesses::total        50131                       # number of SoftPFReq accesses(hits+misses) (Count)
system.cpu.dcache.SoftPFReq.missRate::cpu.data     0.000100                       # miss rate for SoftPFReq accesses (Ratio)
system.cpu.dcache.SoftPFReq.missRate::total     0.000100                       # miss rate for SoftPFReq accesses (Ratio)
system.cpu.dcache.SoftPFReq.mshrMisses::cpu.data            5                       # number of SoftPFReq MSHR misses (Count)
system.cpu.dcache.SoftPFReq.mshrMisses::total            5                       # number of SoftPFReq MSHR misses (Count)
system.cpu.dcache.SoftPFReq.mshrMissLatency::cpu.data       350500                       # number of SoftPFReq MSHR miss ticks (Tick)
system.cpu.dcache.SoftPFReq.mshrMissLatency::total       350500                       # number of SoftPFReq MSHR miss ticks (Tick)
system.cpu.dcache.SoftPFReq.mshrMissRate::cpu.data     0.000100                       # mshr miss rate for SoftPFReq accesses (Ratio)
system.cpu.dcache.SoftPFReq.mshrMissRate::total     0.000100                       # mshr miss rate for SoftPFReq accesses (Ratio)
system.cpu.dcache.SoftPFReq.avgMshrMissLatency::cpu.data        70100                       # average SoftPFReq mshr miss latency ((Tick/Count))
system.cpu.dcache.SoftPFReq.avgMshrMissLatency::total        70100                       # average SoftPFReq mshr miss latency ((Tick/Count))
system.cpu.dcache.StoreCondReq.hits::cpu.data           10                       # number of StoreCondReq hits (Count)
system.cpu.dcache.StoreCondReq.hits::total           10                       # number of StoreCondReq hits (Count)
system.cpu.dcache.StoreCondReq.accesses::cpu.data           10                       # number of StoreCondReq accesses(hits+misses) (Count)
system.cpu.dcache.StoreCondReq.accesses::total           10                       # number of StoreCondReq accesses(hits+misses) (Count)
system.cpu.dcache.SwapReq.hits::cpu.data        98358                       # number of SwapReq hits (Count)
system.cpu.dcache.SwapReq.hits::total           98358                       # number of SwapReq hits (Count)
system.cpu.dcache.SwapReq.accesses::cpu.data        98358                       # number of SwapReq accesses(hits+misses) (Count)
system.cpu.dcache.SwapReq.accesses::total        98358                       # number of SwapReq accesses(hits+misses) (Count)
system.cpu.dcache.WriteLineReq.misses::cpu.data         2054                       # number of WriteLineReq misses (Count)
system.cpu.dcache.WriteLineReq.misses::total         2054                       # number of WriteLineReq misses (Count)
system.cpu.dcache.WriteLineReq.missLatency::cpu.data     41056672                       # number of WriteLineReq miss ticks (Tick)
system.cpu.dcache.WriteLineReq.missLatency::total     41056672                       # number of WriteLineReq miss ticks (Tick)
system.cpu.dcache.WriteLineReq.accesses::cpu.data         2054                       # number of WriteLineReq accesses(hits+misses) (Count)
system.cpu.dcache.WriteLineReq.accesses::total         2054                       # number of WriteLineReq accesses(hits+misses) (Count)
system.cpu.dcache.WriteLineReq.missRate::cpu.data            1                       # miss rate for WriteLineReq accesses (Ratio)
system.cpu.dcache.WriteLineReq.missRate::total            1                       # miss rate for WriteLineReq accesses (Ratio)
system.cpu.dcache.WriteLineReq.avgMissLatency::cpu.data 19988.642648                       # average WriteLineReq miss latency ((Tick/Count))
system.cpu.dcache.WriteLineReq.avgMissLatency::total 19988.642648                       # average WriteLineReq miss latency ((Tick/Count))
system.cpu.dcache.WriteLineReq.mshrMisses::cpu.data         2054                       # number of WriteLineReq MSHR misses (Count)
system.cpu.dcache.WriteLineReq.mshrMisses::total         2054                       # number of WriteLineReq MSHR misses (Count)
system.cpu.dcache.WriteLineReq.mshrMissLatency::cpu.data     39002672                       # number of WriteLineReq MSHR miss ticks (Tick)
system.cpu.dcache.WriteLineReq.mshrMissLatency::total     39002672                       # number of WriteLineReq MSHR miss ticks (Tick)
system.cpu.dcache.WriteLineReq.mshrMissRate::cpu.data            1                       # mshr miss rate for WriteLineReq accesses (Ratio)
system.cpu.dcache.WriteLineReq.mshrMissRate::total            1                       # mshr miss rate for WriteLineReq accesses (Ratio)
system.cpu.dcache.WriteLineReq.avgMshrMissLatency::cpu.data 18988.642648                       # average WriteLineReq mshr miss latency ((Tick/Count))
system.cpu.dcache.WriteLineReq.avgMshrMissLatency::total 18988.642648                       # average WriteLineReq mshr miss latency ((Tick/Count))
system.cpu.dcache.WriteReq.hits::cpu.data     11269175                       # number of WriteReq hits (Count)
system.cpu.dcache.WriteReq.hits::total       11269175                       # number of WriteReq hits (Count)
system.cpu.dcache.WriteReq.misses::cpu.data        68677                       # number of WriteReq misses (Count)
system.cpu.dcache.WriteReq.misses::total        68677                       # number of WriteReq misses (Count)
system.cpu.dcache.WriteReq.missLatency::cpu.data   4975557572                       # number of WriteReq miss ticks (Tick)
system.cpu.dcache.WriteReq.missLatency::total   4975557572                       # number of WriteReq miss ticks (Tick)
system.cpu.dcache.WriteReq.accesses::cpu.data     11337852                       # number of WriteReq accesses(hits+misses) (Count)
system.cpu.dcache.WriteReq.accesses::total     11337852                       # number of WriteReq accesses(hits+misses) (Count)
system.cpu.dcache.WriteReq.missRate::cpu.data     0.006057                       # miss rate for WriteReq accesses (Ratio)
system.cpu.dcache.WriteReq.missRate::total     0.006057                       # miss rate for WriteReq accesses (Ratio)
system.cpu.dcache.WriteReq.avgMissLatency::cpu.data 72448.673821                       # average WriteReq miss latency ((Tick/Count))
system.cpu.dcache.WriteReq.avgMissLatency::total 72448.673821                       # average WriteReq miss latency ((Tick/Count))
system.cpu.dcache.WriteReq.mshrHits::cpu.data        55310                       # number of WriteReq MSHR hits (Count)
system.cpu.dcache.WriteReq.mshrHits::total        55310                       # number of WriteReq MSHR hits (Count)
system.cpu.dcache.WriteReq.mshrMisses::cpu.data        13367                       # number of WriteReq MSHR misses (Count)
system.cpu.dcache.WriteReq.mshrMisses::total        13367                       # number of WriteReq MSHR misses (Count)
system.cpu.dcache.WriteReq.mshrMissLatency::cpu.data   1100680992                       # number of WriteReq MSHR miss ticks (Tick)
system.cpu.dcache.WriteReq.mshrMissLatency::total   1100680992                       # number of WriteReq MSHR miss ticks (Tick)
system.cpu.dcache.WriteReq.mshrMissRate::cpu.data     0.001179                       # mshr miss rate for WriteReq accesses (Ratio)
system.cpu.dcache.WriteReq.mshrMissRate::total     0.001179                       # mshr miss rate for WriteReq accesses (Ratio)
system.cpu.dcache.WriteReq.avgMshrMissLatency::cpu.data 82343.157926                       # average WriteReq mshr miss latency ((Tick/Count))
system.cpu.dcache.WriteReq.avgMshrMissLatency::total 82343.157926                       # average WriteReq mshr miss latency ((Tick/Count))
system.cpu.dcache.power_state.pwrStateResidencyTicks::UNDEFINED  19889125500                       # Cumulative time (in ticks) in various power states (Tick)
system.cpu.dcache.tags.tagsInUse          1007.322855                       # Average ticks per tags in use ((Tick/Count))
system.cpu.dcache.tags.totalRefs             26704641                       # Total number of references to valid blocks. (Count)
system.cpu.dcache.tags.sampledRefs              32856                       # Sample count of references to valid blocks. (Count)
system.cpu.dcache.tags.avgRefs             812.778214                       # Average number of references to valid blocks. ((Count/Count))
system.cpu.dcache.tags.warmupTick              145000                       # The tick when the warmup percentage was hit. (Tick)
system.cpu.dcache.tags.occupancies::cpu.data  1007.322855                       # Average occupied blocks per tick, per requestor ((Count/Tick))
system.cpu.dcache.tags.avgOccs::cpu.data     0.983714                       # Average percentage of cache occupancy ((Ratio/Tick))
system.cpu.dcache.tags.avgOccs::total        0.983714                       # Average percentage of cache occupancy ((Ratio/Tick))
system.cpu.dcache.tags.occupanciesTaskId::1024         1024                       # Occupied blocks per task id (Count)
system.cpu.dcache.tags.ageTaskId_1024::0           74                       # Occupied blocks per task id, per block age (Count)
system.cpu.dcache.tags.ageTaskId_1024::1           16                       # Occupied blocks per task id, per block age (Count)
system.cpu.dcache.tags.ageTaskId_1024::2          203                       # Occupied blocks per task id, per block age (Count)
system.cpu.dcache.tags.ageTaskId_1024::3          730                       # Occupied blocks per task id, per block age (Count)
system.cpu.dcache.tags.ageTaskId_1024::4            1                       # Occupied blocks per task id, per block age (Count)
system.cpu.dcache.tags.ratioOccsTaskId::1024            1                       # Ratio of occupied blocks and all blocks, per task id (Ratio)
system.cpu.dcache.tags.tagAccesses           53657742                       # Number of tag accesses (Count)
system.cpu.dcache.tags.dataAccesses          53657742                       # Number of data accesses (Count)
system.cpu.dcache.tags.power_state.pwrStateResidencyTicks::UNDEFINED  19889125500                       # Cumulative time (in ticks) in various power states (Tick)
system.cpu.decode.idleCycles                 12713401                       # Number of cycles decode is idle (Cycle)
system.cpu.decode.blockedCycles               7473829                       # Number of cycles decode is blocked (Cycle)
system.cpu.decode.runCycles                  17488214                       # Number of cycles decode is running (Cycle)
system.cpu.decode.unblockCycles               1167084                       # Number of cycles decode is unblocking (Cycle)
system.cpu.decode.squashCycles                 174157                       # Number of cycles decode is squashing (Cycle)
system.cpu.decode.branchResolved              8301083                       # Number of times decode resolved a branch (Count)
system.cpu.decode.branchMispred                  5073                       # Number of times decode detected a branch misprediction (Count)
system.cpu.decode.decodedInsts               98378698                       # Number of instructions handled by decode (Count)
system.cpu.decode.squashedInsts                 36581                       # Number of squashed instructions handled by decode (Count)
system.cpu.fetch.icacheStallCycles           14547920                       # Number of cycles fetch is stalled on an Icache miss (Cycle)
system.cpu.fetch.insts                       89672250                       # Number of instructions fetch has processed (Count)
system.cpu.fetch.branches                    16551050                       # Number of branches that fetch encountered (Count)
system.cpu.fetch.predictedBranches            9554952                       # Number of branches that fetch has predicted taken (Count)
system.cpu.fetch.cycles                      24289415                       # Number of cycles fetch has run and was not squashing or blocked (Cycle)
system.cpu.fetch.squashCycles                  358442                       # Number of cycles fetch has spent squashing (Cycle)
system.cpu.fetch.miscStallCycles                    9                       # Number of cycles fetch has spent waiting on interrupts, or bad addresses, or out of MSHRs (Cycle)
system.cpu.fetch.pendingTrapStallCycles             7                       # Number of stall cycles due to pending traps (Cycle)
system.cpu.fetch.icacheWaitRetryStallCycles          113                       # Number of stall cycles due to full MSHR (Cycle)
system.cpu.fetch.cacheLines                  13436963                       # Number of cache lines fetched (Count)
system.cpu.fetch.icacheSquashes                 81553                       # Number of outstanding Icache misses that were squashed (Count)
system.cpu.fetch.nisnDist::samples           39016685                       # Number of instructions fetched each cycle (Total) (Count)
system.cpu.fetch.nisnDist::mean              2.567264                       # Number of instructions fetched each cycle (Total) (Count)
system.cpu.fetch.nisnDist::stdev             3.152925                       # Number of instructions fetched each cycle (Total) (Count)
system.cpu.fetch.nisnDist::underflows               0      0.00%      0.00% # Number of instructions fetched each cycle (Total) (Count)
system.cpu.fetch.nisnDist::0                 19022491     48.75%     48.75% # Number of instructions fetched each cycle (Total) (Count)
system.cpu.fetch.nisnDist::1                  2944854      7.55%     56.30% # Number of instructions fetched each cycle (Total) (Count)
system.cpu.fetch.nisnDist::2                  2150052      5.51%     61.81% # Number of instructions fetched each cycle (Total) (Count)
system.cpu.fetch.nisnDist::3                  1897386      4.86%     66.68% # Number of instructions fetched each cycle (Total) (Count)
system.cpu.fetch.nisnDist::4                  2134707      5.47%     72.15% # Number of instructions fetched each cycle (Total) (Count)
system.cpu.fetch.nisnDist::5                  1351992      3.47%     75.61% # Number of instructions fetched each cycle (Total) (Count)
system.cpu.fetch.nisnDist::6                  1168409      2.99%     78.61% # Number of instructions fetched each cycle (Total) (Count)
system.cpu.fetch.nisnDist::7                  1854597      4.75%     83.36% # Number of instructions fetched each cycle (Total) (Count)
system.cpu.fetch.nisnDist::8                  6492197     16.64%    100.00% # Number of instructions fetched each cycle (Total) (Count)
system.cpu.fetch.nisnDist::overflows                0      0.00%    100.00% # Number of instructions fetched each cycle (Total) (Count)
system.cpu.fetch.nisnDist::min_value                0                       # Number of instructions fetched each cycle (Total) (Count)
system.cpu.fetch.nisnDist::max_value                8                       # Number of instructions fetched each cycle (Total) (Count)
system.cpu.fetch.nisnDist::total             39016685                       # Number of instructions fetched each cycle (Total) (Count)
system.cpu.fetch.branchRate                  0.416083                       # Number of branch fetches per cycle (Ratio)
system.cpu.fetch.rate                        2.254303                       # Number of inst fetches per cycle ((Count/Cycle))
system.cpu.icache.demandHits::cpu.inst       13393698                       # number of demand (read+write) hits (Count)
system.cpu.icache.demandHits::total          13393698                       # number of demand (read+write) hits (Count)
system.cpu.icache.overallHits::cpu.inst      13393698                       # number of overall hits (Count)
system.cpu.icache.overallHits::total         13393698                       # number of overall hits (Count)
system.cpu.icache.demandMisses::cpu.inst        43265                       # number of demand (read+write) misses (Count)
system.cpu.icache.demandMisses::total           43265                       # number of demand (read+write) misses (Count)
system.cpu.icache.overallMisses::cpu.inst        43265                       # number of overall misses (Count)
system.cpu.icache.overallMisses::total          43265                       # number of overall misses (Count)
system.cpu.icache.demandMissLatency::cpu.inst   1048641497                       # number of demand (read+write) miss ticks (Tick)
system.cpu.icache.demandMissLatency::total   1048641497                       # number of demand (read+write) miss ticks (Tick)
system.cpu.icache.overallMissLatency::cpu.inst   1048641497                       # number of overall miss ticks (Tick)
system.cpu.icache.overallMissLatency::total   1048641497                       # number of overall miss ticks (Tick)
system.cpu.icache.demandAccesses::cpu.inst     13436963                       # number of demand (read+write) accesses (Count)
system.cpu.icache.demandAccesses::total      13436963                       # number of demand (read+write) accesses (Count)
system.cpu.icache.overallAccesses::cpu.inst     13436963                       # number of overall (read+write) accesses (Count)
system.cpu.icache.overallAccesses::total     13436963                       # number of overall (read+write) accesses (Count)
system.cpu.icache.demandMissRate::cpu.inst     0.003220                       # miss rate for demand accesses (Ratio)
system.cpu.icache.demandMissRate::total      0.003220                       # miss rate for demand accesses (Ratio)
system.cpu.icache.overallMissRate::cpu.inst     0.003220                       # miss rate for overall accesses (Ratio)
system.cpu.icache.overallMissRate::total     0.003220                       # miss rate for overall accesses (Ratio)
system.cpu.icache.demandAvgMissLatency::cpu.inst 24237.640055                       # average overall miss latency ((Cycle/Count))
system.cpu.icache.demandAvgMissLatency::total 24237.640055                       # average overall miss latency ((Cycle/Count))
system.cpu.icache.overallAvgMissLatency::cpu.inst 24237.640055                       # average overall miss latency ((Cycle/Count))
system.cpu.icache.overallAvgMissLatency::total 24237.640055                       # average overall miss latency ((Cycle/Count))
system.cpu.icache.blockedCycles::no_mshrs         1140                       # number of cycles access was blocked (Cycle)
system.cpu.icache.blockedCycles::no_targets            0                       # number of cycles access was blocked (Cycle)
system.cpu.icache.blockedCauses::no_mshrs           20                       # number of times access was blocked (Count)
system.cpu.icache.blockedCauses::no_targets            0                       # number of times access was blocked (Count)
system.cpu.icache.avgBlocked::no_mshrs             57                       # average number of cycles each access was blocked ((Cycle/Count))
system.cpu.icache.avgBlocked::no_targets          nan                       # average number of cycles each access was blocked ((Cycle/Count))
system.cpu.icache.writebacks::writebacks        39772                       # number of writebacks (Count)
system.cpu.icache.writebacks::total             39772                       # number of writebacks (Count)
system.cpu.icache.demandMshrHits::cpu.inst         2992                       # number of demand (read+write) MSHR hits (Count)
system.cpu.icache.demandMshrHits::total          2992                       # number of demand (read+write) MSHR hits (Count)
system.cpu.icache.overallMshrHits::cpu.inst         2992                       # number of overall MSHR hits (Count)
system.cpu.icache.overallMshrHits::total         2992                       # number of overall MSHR hits (Count)
system.cpu.icache.demandMshrMisses::cpu.inst        40273                       # number of demand (read+write) MSHR misses (Count)
system.cpu.icache.demandMshrMisses::total        40273                       # number of demand (read+write) MSHR misses (Count)
system.cpu.icache.overallMshrMisses::cpu.inst        40273                       # number of overall MSHR misses (Count)
system.cpu.icache.overallMshrMisses::total        40273                       # number of overall MSHR misses (Count)
system.cpu.icache.demandMshrMissLatency::cpu.inst    952338498                       # number of demand (read+write) MSHR miss ticks (Tick)
system.cpu.icache.demandMshrMissLatency::total    952338498                       # number of demand (read+write) MSHR miss ticks (Tick)
system.cpu.icache.overallMshrMissLatency::cpu.inst    952338498                       # number of overall MSHR miss ticks (Tick)
system.cpu.icache.overallMshrMissLatency::total    952338498                       # number of overall MSHR miss ticks (Tick)
system.cpu.icache.demandMshrMissRate::cpu.inst     0.002997                       # mshr miss ratio for demand accesses (Ratio)
system.cpu.icache.demandMshrMissRate::total     0.002997                       # mshr miss ratio for demand accesses (Ratio)
system.cpu.icache.overallMshrMissRate::cpu.inst     0.002997                       # mshr miss ratio for overall accesses (Ratio)
system.cpu.icache.overallMshrMissRate::total     0.002997                       # mshr miss ratio for overall accesses (Ratio)
system.cpu.icache.demandAvgMshrMissLatency::cpu.inst 23647.071189                       # average overall mshr miss latency ((Cycle/Count))
system.cpu.icache.demandAvgMshrMissLatency::total 23647.071189                       # average overall mshr miss latency ((Cycle/Count))
system.cpu.icache.overallAvgMshrMissLatency::cpu.inst 23647.071189                       # average overall mshr miss latency ((Cycle/Count))
system.cpu.icache.overallAvgMshrMissLatency::total 23647.071189                       # average overall mshr miss latency ((Cycle/Count))
system.cpu.icache.replacements                  39772                       # number of replacements (Count)
system.cpu.icache.ReadReq.hits::cpu.inst     13393698                       # number of ReadReq hits (Count)
system.cpu.icache.ReadReq.hits::total        13393698                       # number of ReadReq hits (Count)
system.cpu.icache.ReadReq.misses::cpu.inst        43265                       # number of ReadReq misses (Count)
system.cpu.icache.ReadReq.misses::total         43265                       # number of ReadReq misses (Count)
system.cpu.icache.ReadReq.missLatency::cpu.inst   1048641497                       # number of ReadReq miss ticks (Tick)
system.cpu.icache.ReadReq.missLatency::total   1048641497                       # number of ReadReq miss ticks (Tick)
system.cpu.icache.ReadReq.accesses::cpu.inst     13436963                       # number of ReadReq accesses(hits+misses) (Count)
system.cpu.icache.ReadReq.accesses::total     13436963                       # number of ReadReq accesses(hits+misses) (Count)
system.cpu.icache.ReadReq.missRate::cpu.inst     0.003220                       # miss rate for ReadReq accesses (Ratio)
system.cpu.icache.ReadReq.missRate::total     0.003220                       # miss rate for ReadReq accesses (Ratio)
system.cpu.icache.ReadReq.avgMissLatency::cpu.inst 24237.640055                       # average ReadReq miss latency ((Tick/Count))
system.cpu.icache.ReadReq.avgMissLatency::total 24237.640055                       # average ReadReq miss latency ((Tick/Count))
system.cpu.icache.ReadReq.mshrHits::cpu.inst         2992                       # number of ReadReq MSHR hits (Count)
system.cpu.icache.ReadReq.mshrHits::total         2992                       # number of ReadReq MSHR hits (Count)
system.cpu.icache.ReadReq.mshrMisses::cpu.inst        40273                       # number of ReadReq MSHR misses (Count)
system.cpu.icache.ReadReq.mshrMisses::total        40273                       # number of ReadReq MSHR misses (Count)
system.cpu.icache.ReadReq.mshrMissLatency::cpu.inst    952338498                       # number of ReadReq MSHR miss ticks (Tick)
system.cpu.icache.ReadReq.mshrMissLatency::total    952338498                       # number of ReadReq MSHR miss ticks (Tick)
system.cpu.icache.ReadReq.mshrMissRate::cpu.inst     0.002997                       # mshr miss rate for ReadReq accesses (Ratio)
system.cpu.icache.ReadReq.mshrMissRate::total     0.002997                       # mshr miss rate for ReadReq accesses (Ratio)
system.cpu.icache.ReadReq.avgMshrMissLatency::cpu.inst 23647.071189                       # average ReadReq mshr miss latency ((Tick/Count))
system.cpu.icache.ReadReq.avgMshrMissLatency::total 23647.071189                       # average ReadReq mshr miss latency ((Tick/Count))
system.cpu.icache.power_state.pwrStateResidencyTicks::UNDEFINED  19889125500                       # Cumulative time (in ticks) in various power states (Tick)
system.cpu.icache.tags.tagsInUse           493.804832                       # Average ticks per tags in use ((Tick/Count))
system.cpu.icache.tags.totalRefs             13433970                       # Total number of references to valid blocks. (Count)
system.cpu.icache.tags.sampledRefs              40272                       # Sample count of references to valid blocks. (Count)
system.cpu.icache.tags.avgRefs             333.580900                       # Average number of references to valid blocks. ((Count/Count))
system.cpu.icache.tags.warmupTick               77000                       # The tick when the warmup percentage was hit. (Tick)
system.cpu.icache.tags.occupancies::cpu.inst   493.804832                       # Average occupied blocks per tick, per requestor ((Count/Tick))
system.cpu.icache.tags.avgOccs::cpu.inst     0.964463                       # Average percentage of cache occupancy ((Ratio/Tick))
system.cpu.icache.tags.avgOccs::total        0.964463                       # Average percentage of cache occupancy ((Ratio/Tick))
system.cpu.icache.tags.occupanciesTaskId::1024          500                       # Occupied blocks per task id (Count)
system.cpu.icache.tags.ageTaskId_1024::0           97                       # Occupied blocks per task id, per block age (Count)
system.cpu.icache.tags.ageTaskId_1024::2            1                       # Occupied blocks per task id, per block age (Count)
system.cpu.icache.tags.ageTaskId_1024::3          187                       # Occupied blocks per task id, per block age (Count)
system.cpu.icache.tags.ageTaskId_1024::4          215                       # Occupied blocks per task id, per block age (Count)
system.cpu.icache.tags.ratioOccsTaskId::1024     0.976562                       # Ratio of occupied blocks and all blocks, per task id (Ratio)
system.cpu.icache.tags.tagAccesses           26914198                       # Number of tag accesses (Count)
system.cpu.icache.tags.dataAccesses          26914198                       # Number of data accesses (Count)
system.cpu.icache.tags.power_state.pwrStateResidencyTicks::UNDEFINED  19889125500                       # Cumulative time (in ticks) in various power states (Tick)
system.cpu.iew.idleCycles                           0                       # Number of cycles IEW is idle (Cycle)
system.cpu.iew.squashCycles                    174157                       # Number of cycles IEW is squashing (Cycle)
system.cpu.iew.blockCycles                    1285551                       # Number of cycles IEW is blocking (Cycle)
system.cpu.iew.unblockCycles                   692714                       # Number of cycles IEW is unblocking (Cycle)
system.cpu.iew.dispatchedInsts               96939332                       # Number of instructions dispatched to IQ (Count)
system.cpu.iew.dispSquashedInsts                92879                       # Number of squashed instructions skipped by dispatch (Count)
system.cpu.iew.dispLoadInsts                 18901586                       # Number of dispatched load instructions (Count)
system.cpu.iew.dispStoreInsts                13279399                       # Number of dispatched store instructions (Count)
system.cpu.iew.dispNonSpecInsts                196990                       # Number of dispatched non-speculative instructions (Count)
system.cpu.iew.iqFullEvents                     34094                       # Number of times the IQ has become full, causing a stall (Count)
system.cpu.iew.lsqFullEvents                   646464                       # Number of times the LSQ has become full, causing a stall (Count)
[...]
system.mem_ctrls.dram.bwRead::cpu.inst      129588805                       # Total read bandwidth from this memory ((Byte/Second))
system.mem_ctrls.dram.bwRead::cpu.data       99045079                       # Total read bandwidth from this memory ((Byte/Second))
system.mem_ctrls.dram.bwRead::total         228633883                       # Total read bandwidth from this memory ((Byte/Second))
system.mem_ctrls.dram.bwInstRead::cpu.inst    129588805                       # Instruction read bandwidth from this memory ((Byte/Second))
system.mem_ctrls.dram.bwInstRead::total     129588805                       # Instruction read bandwidth from this memory ((Byte/Second))
system.mem_ctrls.dram.bwWrite::writebacks     55115143                       # Write bandwidth from this memory ((Byte/Second))
system.mem_ctrls.dram.bwWrite::total         55115143                       # Write bandwidth from this memory ((Byte/Second))
system.mem_ctrls.dram.bwTotal::writebacks     55115143                       # Total bandwidth to/from this memory ((Byte/Second))
system.mem_ctrls.dram.bwTotal::cpu.inst     129588805                       # Total bandwidth to/from this memory ((Byte/Second))
system.mem_ctrls.dram.bwTotal::cpu.data      99045079                       # Total bandwidth to/from this memory ((Byte/Second))
system.mem_ctrls.dram.bwTotal::total        283749027                       # Total bandwidth to/from this memory ((Byte/Second))
system.mem_ctrls.dram.readBursts                32278                       # Number of DRAM read bursts (Count)
system.mem_ctrls.dram.writeBursts               18629                       # Number of DRAM write bursts (Count)
system.mem_ctrls.dram.perBankRdBursts::0         1929                       # Per bank write bursts (Count)
system.mem_ctrls.dram.perBankRdBursts::1         1955                       # Per bank write bursts (Count)
system.mem_ctrls.dram.perBankRdBursts::2         2046                       # Per bank write bursts (Count)
system.mem_ctrls.dram.perBankRdBursts::3         1952                       # Per bank write bursts (Count)
system.mem_ctrls.dram.perBankRdBursts::4         1955                       # Per bank write bursts (Count)
system.mem_ctrls.dram.perBankRdBursts::5         2607                       # Per bank write bursts (Count)
system.mem_ctrls.dram.perBankRdBursts::6         2429                       # Per bank write bursts (Count)
system.mem_ctrls.dram.perBankRdBursts::7         2148                       # Per bank write bursts (Count)
system.mem_ctrls.dram.perBankRdBursts::8         1889                       # Per bank write bursts (Count)
system.mem_ctrls.dram.perBankRdBursts::9         1906                       # Per bank write bursts (Count)
system.mem_ctrls.dram.perBankRdBursts::10         2035                       # Per bank write bursts (Count)
system.mem_ctrls.dram.perBankRdBursts::11         2013                       # Per bank write bursts (Count)
system.mem_ctrls.dram.perBankRdBursts::12         1866                       # Per bank write bursts (Count)
system.mem_ctrls.dram.perBankRdBursts::13         1856                       # Per bank write bursts (Count)
system.mem_ctrls.dram.perBankRdBursts::14         1854                       # Per bank write bursts (Count)
system.mem_ctrls.dram.perBankRdBursts::15         1838                       # Per bank write bursts (Count)
system.mem_ctrls.dram.perBankWrBursts::0         1087                       # Per bank write bursts (Count)
system.mem_ctrls.dram.perBankWrBursts::1         1095                       # Per bank write bursts (Count)
system.mem_ctrls.dram.perBankWrBursts::2         1177                       # Per bank write bursts (Count)
system.mem_ctrls.dram.perBankWrBursts::3         1171                       # Per bank write bursts (Count)
system.mem_ctrls.dram.perBankWrBursts::4         1150                       # Per bank write bursts (Count)
system.mem_ctrls.dram.perBankWrBursts::5         1429                       # Per bank write bursts (Count)
system.mem_ctrls.dram.perBankWrBursts::6         1332                       # Per bank write bursts (Count)
system.mem_ctrls.dram.perBankWrBursts::7         1119                       # Per bank write bursts (Count)
system.mem_ctrls.dram.perBankWrBursts::8         1088                       # Per bank write bursts (Count)
system.mem_ctrls.dram.perBankWrBursts::9         1207                       # Per bank write bursts (Count)
system.mem_ctrls.dram.perBankWrBursts::10         1046                       # Per bank write bursts (Count)
system.mem_ctrls.dram.perBankWrBursts::11         1269                       # Per bank write bursts (Count)
system.mem_ctrls.dram.perBankWrBursts::12         1069                       # Per bank write bursts (Count)
system.mem_ctrls.dram.perBankWrBursts::13         1284                       # Per bank write bursts (Count)
system.mem_ctrls.dram.perBankWrBursts::14         1050                       # Per bank write bursts (Count)
system.mem_ctrls.dram.perBankWrBursts::15         1056                       # Per bank write bursts (Count)
system.mem_ctrls.dram.totQLat               967993750                       # Total ticks spent queuing (Tick)
system.mem_ctrls.dram.totBusLat             161390000                       # Total ticks spent in databus transfers (Tick)
system.mem_ctrls.dram.totMemAccLat         1573206250                       # Total ticks spent from burst creation until serviced by the DRAM (Tick)
system.mem_ctrls.dram.avgQLat                29989.27                       # Average queueing delay per DRAM burst ((Tick/Count))
system.mem_ctrls.dram.avgBusLat               5000.00                       # Average bus latency per DRAM burst ((Tick/Count))
system.mem_ctrls.dram.avgMemAccLat           48739.27                       # Average memory access latency per DRAM burst ((Tick/Count))
system.mem_ctrls.dram.readRowHits               22156                       # Number of row buffer hits during reads (Count)
system.mem_ctrls.dram.writeRowHits              16219                       # Number of row buffer hits during writes (Count)
system.mem_ctrls.dram.readRowHitRate            68.64                       # Row buffer hit rate for reads (Ratio)
system.mem_ctrls.dram.writeRowHitRate           87.06                       # Row buffer hit rate for writes (Ratio)
system.mem_ctrls.dram.bytesPerActivate::samples        12518                       # Bytes accessed per row activation (Byte)
system.mem_ctrls.dram.bytesPerActivate::mean   260.110561                       # Bytes accessed per row activation (Byte)
system.mem_ctrls.dram.bytesPerActivate::gmean   172.708493                       # Bytes accessed per row activation (Byte)
system.mem_ctrls.dram.bytesPerActivate::stdev   272.066190                       # Bytes accessed per row activation (Byte)
system.mem_ctrls.dram.bytesPerActivate::0-127         3836     30.64%     30.64% # Bytes accessed per row activation (Byte)
system.mem_ctrls.dram.bytesPerActivate::128-255         3815     30.48%     61.12% # Bytes accessed per row activation (Byte)
system.mem_ctrls.dram.bytesPerActivate::256-383         3028     24.19%     85.31% # Bytes accessed per row activation (Byte)
system.mem_ctrls.dram.bytesPerActivate::384-511          294      2.35%     87.66% # Bytes accessed per row activation (Byte)
system.mem_ctrls.dram.bytesPerActivate::512-639          155      1.24%     88.90% # Bytes accessed per row activation (Byte)
system.mem_ctrls.dram.bytesPerActivate::640-767          167      1.33%     90.23% # Bytes accessed per row activation (Byte)
system.mem_ctrls.dram.bytesPerActivate::768-895           97      0.77%     91.00% # Bytes accessed per row activation (Byte)
system.mem_ctrls.dram.bytesPerActivate::896-1023           83      0.66%     91.67% # Bytes accessed per row activation (Byte)
system.mem_ctrls.dram.bytesPerActivate::1024-1151         1043      8.33%    100.00% # Bytes accessed per row activation (Byte)
system.mem_ctrls.dram.bytesPerActivate::total        12518                       # Bytes accessed per row activation (Byte)
system.mem_ctrls.dram.bytesRead               2065792                       # Total bytes read (Byte)
system.mem_ctrls.dram.bytesWritten            1192256                       # Total bytes written (Byte)
system.mem_ctrls.dram.avgRdBW              103.865401                       # Average DRAM read bandwidth in MiBytes/s ((Byte/Second))
system.mem_ctrls.dram.avgWrBW               59.945119                       # Average DRAM write bandwidth in MiBytes/s ((Byte/Second))
system.mem_ctrls.dram.peakBW                 12800.00                       # Theoretical peak bandwidth in MiByte/s ((Byte/Second))
system.mem_ctrls.dram.busUtil                    1.28                       # Data bus utilization in percentage (Ratio)
system.mem_ctrls.dram.busUtilRead                0.81                       # Data bus utilization in percentage for reads (Ratio)
system.mem_ctrls.dram.busUtilWrite               0.47                       # Data bus utilization in percentage for writes (Ratio)
system.mem_ctrls.dram.pageHitRate               75.38                       # Row buffer hit rate, read and write combined (Ratio)
system.mem_ctrls.dram.power_state.pwrStateResidencyTicks::UNDEFINED  19889125500                       # Cumulative time (in ticks) in various power states (Tick)
system.mem_ctrls.dram.rank0.actEnergy        46067280                       # Energy for activate commands per rank (pJ) (Joule)
system.mem_ctrls.dram.rank0.preEnergy        24458775                       # Energy for precharge commands per rank (pJ) (Joule)
system.mem_ctrls.dram.rank0.readEnergy      121522800                       # Energy for read commands per rank (pJ) (Joule)
system.mem_ctrls.dram.rank0.writeEnergy      49903200                       # Energy for write commands per rank (pJ) (Joule)
system.mem_ctrls.dram.rank0.refreshEnergy 1569790560.000000                       # Energy for refresh commands per rank (pJ) (Joule)
system.mem_ctrls.dram.rank0.actBackEnergy   4360230960                       # Energy for active background per rank (pJ) (Joule)
system.mem_ctrls.dram.rank0.preBackEnergy   3965651040                       # Energy for precharge background per rank (pJ) (Joule)
system.mem_ctrls.dram.rank0.actPowerDownEnergy            0                       # Energy for active power-down per rank (pJ) (Joule)
system.mem_ctrls.dram.rank0.prePowerDownEnergy            0                       # Energy for precharge power-down per rank (pJ) (Joule)
system.mem_ctrls.dram.rank0.selfRefreshEnergy            0                       # Energy for self refresh per rank (pJ) (Joule)
system.mem_ctrls.dram.rank0.totalEnergy   10137624615                       # Total energy per rank (pJ) (Joule)
system.mem_ctrls.dram.rank0.averagePower   509.706906                       # Core power per rank (mW) (Watt)
system.mem_ctrls.dram.rank0.totalIdleTime            0                       # Total Idle time Per DRAM Rank (Tick)
system.mem_ctrls.dram.rank0.pwrStateTime::IDLE  10256276750                       # Time in different power states (Tick)
system.mem_ctrls.dram.rank0.pwrStateTime::REF    664040000                       # Time in different power states (Tick)
system.mem_ctrls.dram.rank0.pwrStateTime::SREF            0                       # Time in different power states (Tick)
system.mem_ctrls.dram.rank0.pwrStateTime::PRE_PDN            0                       # Time in different power states (Tick)
system.mem_ctrls.dram.rank0.pwrStateTime::ACT   8968808750                       # Time in different power states (Tick)
system.mem_ctrls.dram.rank0.pwrStateTime::ACT_PDN            0                       # Time in different power states (Tick)
system.mem_ctrls.dram.rank1.actEnergy        43404060                       # Energy for activate commands per rank (pJ) (Joule)
system.mem_ctrls.dram.rank1.preEnergy        23047035                       # Energy for precharge commands per rank (pJ) (Joule)
system.mem_ctrls.dram.rank1.readEnergy      108934980                       # Energy for read commands per rank (pJ) (Joule)
system.mem_ctrls.dram.rank1.writeEnergy      47340180                       # Energy for write commands per rank (pJ) (Joule)
system.mem_ctrls.dram.rank1.refreshEnergy 1569790560.000000                       # Energy for refresh commands per rank (pJ) (Joule)
system.mem_ctrls.dram.rank1.actBackEnergy   4328111460                       # Energy for active background per rank (pJ) (Joule)
system.mem_ctrls.dram.rank1.preBackEnergy   3992699040                       # Energy for precharge background per rank (pJ) (Joule)
system.mem_ctrls.dram.rank1.actPowerDownEnergy            0                       # Energy for active power-down per rank (pJ) (Joule)
system.mem_ctrls.dram.rank1.prePowerDownEnergy            0                       # Energy for precharge power-down per rank (pJ) (Joule)
system.mem_ctrls.dram.rank1.selfRefreshEnergy            0                       # Energy for self refresh per rank (pJ) (Joule)
system.mem_ctrls.dram.rank1.totalEnergy   10113327315                       # Total energy per rank (pJ) (Joule)
system.mem_ctrls.dram.rank1.averagePower   508.485268                       # Core power per rank (mW) (Watt)
system.mem_ctrls.dram.rank1.totalIdleTime            0                       # Total Idle time Per DRAM Rank (Tick)
system.mem_ctrls.dram.rank1.pwrStateTime::IDLE  10324644750                       # Time in different power states (Tick)
system.mem_ctrls.dram.rank1.pwrStateTime::REF    664040000                       # Time in different power states (Tick)
system.mem_ctrls.dram.rank1.pwrStateTime::SREF            0                       # Time in different power states (Tick)
system.mem_ctrls.dram.rank1.pwrStateTime::PRE_PDN            0                       # Time in different power states (Tick)
system.mem_ctrls.dram.rank1.pwrStateTime::ACT   8900440750                       # Time in different power states (Tick)
system.mem_ctrls.dram.rank1.pwrStateTime::ACT_PDN            0                       # Time in different power states (Tick)
system.mem_ctrls.power_state.pwrStateResidencyTicks::UNDEFINED  19889125500                       # Cumulative time (in ticks) in various power states (Tick)
system.membus.transDist::ReadResp               57707                       # Transaction distribution (Count)
system.membus.transDist::WritebackDirty         17128                       # Transaction distribution (Count)
system.membus.transDist::WritebackClean         39772                       # Transaction distribution (Count)
system.membus.transDist::CleanEvict             14704                       # Transaction distribution (Count)
system.membus.transDist::ReadExReq              13345                       # Transaction distribution (Count)
system.membus.transDist::ReadExResp             13345                       # Transaction distribution (Count)
system.membus.transDist::ReadCleanReq           40273                       # Transaction distribution (Count)
system.membus.transDist::ReadSharedReq          17435                       # Transaction distribution (Count)
system.membus.transDist::InvalidateReq           2076                       # Transaction distribution (Count)
system.membus.pktCount_system.cpu.icache.mem_side_port::system.mem_ctrls.port       120317                       # Packet count per connected requestor and responder (Count)
system.membus.pktCount_system.cpu.dcache.mem_side_port::system.mem_ctrls.port        95468                       # Packet count per connected requestor and responder (Count)
system.membus.pktCount::total                  215785                       # Packet count per connected requestor and responder (Count)
system.membus.pktSize_system.cpu.icache.mem_side_port::system.mem_ctrls.port      5122816                       # Cumulative packet size per connected requestor and responder (Byte)
system.membus.pktSize_system.cpu.dcache.mem_side_port::system.mem_ctrls.port      3066112                       # Cumulative packet size per connected requestor and responder (Byte)
system.membus.pktSize::total                  8188928                       # Cumulative packet size per connected requestor and responder (Byte)
system.membus.snoops                                0                       # Total snoops (Count)
system.membus.snoopTraffic                          0                       # Total snoop traffic (Byte)
system.membus.snoopFanout::samples              73129                       # Request fanout histogram (Count)
system.membus.snoopFanout::mean              0.000027                       # Request fanout histogram (Count)
system.membus.snoopFanout::stdev             0.005230                       # Request fanout histogram (Count)
system.membus.snoopFanout::underflows               0      0.00%      0.00% # Request fanout histogram (Count)
system.membus.snoopFanout::0                    73127    100.00%    100.00% # Request fanout histogram (Count)
system.membus.snoopFanout::1                        2      0.00%    100.00% # Request fanout histogram (Count)
system.membus.snoopFanout::2                        0      0.00%    100.00% # Request fanout histogram (Count)
system.membus.snoopFanout::overflows                0      0.00%    100.00% # Request fanout histogram (Count)
system.membus.snoopFanout::min_value                0                       # Request fanout histogram (Count)
system.membus.snoopFanout::max_value                1                       # Request fanout histogram (Count)
system.membus.snoopFanout::total                73129                       # Request fanout histogram (Count)
system.membus.power_state.pwrStateResidencyTicks::UNDEFINED  19889125500                       # Cumulative time (in ticks) in various power states (Tick)
system.membus.reqLayer0.occupancy           382997500                       # Layer occupancy (ticks) (Tick)
system.membus.reqLayer0.utilization               0.0                       # Layer utilization (Ratio)
system.membus.respLayer1.occupancy          201938000                       # Layer occupancy (ticks) (Tick)
system.membus.respLayer1.utilization              0.0                       # Layer utilization (Ratio)
system.membus.respLayer2.occupancy          161484250                       # Layer occupancy (ticks) (Tick)
system.membus.respLayer2.utilization              0.0                       # Layer utilization (Ratio)
system.membus.snoop_filter.totRequests         144735                       # Total number of requests made to the snoop filter. (Count)
system.membus.snoop_filter.hitSingleRequests        71607                       # Number of requests hitting in the snoop filter with a single holder of the requested data. (Count)
system.membus.snoop_filter.hitMultiRequests            1                       # Number of requests hitting in the snoop filter with multiple (>1) holders of the requested data. (Count)
system.membus.snoop_filter.totSnoops                0                       # Total number of snoops made to the snoop filter. (Count)
system.membus.snoop_filter.hitSingleSnoops            0                       # Number of snoops hitting in the snoop filter with a single holder of the requested data. (Count)
system.membus.snoop_filter.hitMultiSnoops            0                       # Number of snoops hitting in the snoop filter with multiple (>1) holders of the requested data. (Count)
system.voltage_domain.voltage                       1                       # Voltage in Volts (Volt)
system.workload.inst.arm                            0                       # number of arm instructions executed (Count)
system.workload.inst.quiesce                        0                       # number of quiesce instructions executed (Count)

---------- End Simulation Statistics   ----------
