
---------- Begin Simulation Statistics ----------
simSeconds                                   0.124489                       # Number of seconds simulated (Second)
simTicks                                 124488952500                       # Number of ticks simulated (Tick)
finalTick                                124488952500                       # Number of ticks from beginning of simulation (restored from checkpoints and never reset) (Tick)
simFreq                                  1000000000000                       # The number of ticks per simulated second ((Tick/Second))
hostSeconds                                    469.98                       # Real time elapsed on the host (Second)
hostTickRate                                264878734                       # The number of ticks simulated per host second (ticks/s) ((Tick/Second))
hostMemory                                     680744                       # Number of bytes of host memory used (Byte)
simInsts                                    311729465                       # Number of instructions simulated (Count)
simOps                                      323739394                       # Number of ops (including micro ops) simulated (Count)
hostInstRate                                   663276                       # Simulator instruction rate (inst/s) ((Count/Second))
hostOpRate                                     688829                       # Simulator op (including micro ops) rate (op/s) ((Count/Second))
system.clk_domain.clock                          1000                       # Clock period in ticks (Tick)
system.cpu.numCycles                        248977906                       # Number of cpu cycles simulated (Cycle)
system.cpu.numWorkItemsStarted                      0                       # Number of work items this cpu started (Count)
system.cpu.numWorkItemsCompleted                    0                       # Number of work items this cpu completed (Count)
system.cpu.instsAdded                       335657315                       # Number of instructions added to the IQ (excludes non-spec) (Count)
system.cpu.nonSpecInstsAdded                   197003                       # Number of non-speculative instructions added to the IQ (Count)
system.cpu.instsIssued                      334664405                       # Number of instructions issued (Count)
system.cpu.squashedInstsIssued                 320285                       # Number of squashed instructions issued (Count)
system.cpu.squashedInstsExamined             12114923                       # Number of squashed instructions iterated over during squash; mainly for profiling (Count)
system.cpu.squashedOperandsExamined           8709823                       # Number of squashed operands that are examined and possibly removed from graph (Count)
system.cpu.squashedNonSpecRemoved                 186                       # Number of squashed non-spec instructions that were removed (Count)
system.cpu.numIssuedDist::samples           246332862                       # Number of insts issued each cycle (Count)
system.cpu.numIssuedDist::mean               1.358586                       # Number of insts issued each cycle (Count)
system.cpu.numIssuedDist::stdev              1.881156                       # Number of insts issued each cycle (Count)
system.cpu.numIssuedDist::underflows                0      0.00%      0.00% # Number of insts issued each cycle (Count)
system.cpu.numIssuedDist::0                 138270343     56.13%     56.13% # Number of insts issued each cycle (Count)
system.cpu.numIssuedDist::1                  20039825      8.14%     64.27% # Number of insts issued each cycle (Count)
system.cpu.numIssuedDist::2                  25125524     10.20%     74.47% # Number of insts issued each cycle (Count)
system.cpu.numIssuedDist::3                  23126527      9.39%     83.85% # Number of insts issued each cycle (Count)
system.cpu.numIssuedDist::4                  16933991      6.87%     90.73% # Number of insts issued each cycle (Count)
system.cpu.numIssuedDist::5                  14589954      5.92%     96.65% # Number of insts issued each cycle (Count)
system.cpu.numIssuedDist::6                   4599308      1.87%     98.52% # Number of insts issued each cycle (Count)
system.cpu.numIssuedDist::7                   2466751      1.00%     99.52% # Number of insts issued each cycle (Count)
system.cpu.numIssuedDist::8                   1180639      0.48%    100.00% # Number of insts issued each cycle (Count)
system.cpu.numIssuedDist::overflows                 0      0.00%    100.00% # Number of insts issued each cycle (Count)
system.cpu.numIssuedDist::min_value                 0                       # Number of insts issued each cycle (Count)
system.cpu.numIssuedDist::max_value                 8                       # Number of insts issued each cycle (Count)
system.cpu.numIssuedDist::total             246332862                       # Number of insts issued each cycle (Count)
system.cpu.statFuBusy::No_OpClass                   0      0.00%      0.00% # attempts to use FU when none available (Count)
system.cpu.statFuBusy::IntAlu                  473938      9.70%      9.70% # attempts to use FU when none available (Count)
system.cpu.statFuBusy::IntMult                 248916      5.09%     14.79% # attempts to use FU when none available (Count)
system.cpu.statFuBusy::IntDiv                       0      0.00%     14.79% # attempts to use FU when none available (Count)
system.cpu.statFuBusy::FloatAdd                     0      0.00%     14.79% # attempts to use FU when none available (Count)
system.cpu.statFuBusy::FloatCmp                     0      0.00%     14.79% # attempts to use FU when none available (Count)
system.cpu.statFuBusy::FloatCvt                     0      0.00%     14.79% # attempts to use FU when none available (Count)
system.cpu.statFuBusy::FloatMult                    0      0.00%     14.79% # attempts to use FU when none available (Count)
system.cpu.statFuBusy::FloatMultAcc                 0      0.00%     14.79% # attempts to use FU when none available (Count)
system.cpu.statFuBusy::FloatDiv                     0      0.00%     14.79% # attempts to use FU when none available (Count)
system.cpu.statFuBusy::FloatMisc                    0      0.00%     14.79% # attempts to use FU when none available (Count)
system.cpu.statFuBusy::FloatSqrt                    0      0.00%     14.79% # attempts to use FU when none available (Count)
system.cpu.statFuBusy::SimdAdd                      0      0.00%     14.79% # attempts to use FU when none available (Count)
system.cpu.statFuBusy::SimdAddAcc                   0      0.00%     14.79% # attempts to use FU when none available (Count)
system.cpu.statFuBusy::SimdAlu                      1      0.00%     14.79% # attempts to use FU when none available (Count)
system.cpu.statFuBusy::SimdCmp                      7      0.00%     14.79% # attempts to use FU when none available (Count)
system.cpu.statFuBusy::SimdCvt                      0      0.00%     14.79% # attempts to use FU when none available (Count)
system.cpu.statFuBusy::SimdMisc                     0      0.00%     14.79% # attempts to use FU when none available (Count)
system.cpu.statFuBusy::SimdMult                     0      0.00%     14.79% # attempts to use FU when none available (Count)
system.cpu.statFuBusy::SimdMultAcc                  0      0.00%     14.79% # attempts to use FU when none available (Count)
system.cpu.statFuBusy::SimdShift                    0      0.00%     14.79% # attempts to use FU when none available (Count)
system.cpu.statFuBusy::SimdShiftAcc                 0      0.00%     14.79% # attempts to use FU when none available (Count)
system.cpu.statFuBusy::SimdDiv                      0      0.00%     14.79% # attempts to use FU when none available (Count)
system.cpu.statFuBusy::SimdSqrt                     0      0.00%     14.79% # attempts to use FU when none available (Count)
system.cpu.statFuBusy::SimdFloatAdd                 0      0.00%     14.79% # attempts to use FU when none available (Count)
system.cpu.statFuBusy::SimdFloatAlu                 0      0.00%     14.79% # attempts to use FU when none available (Count)
system.cpu.statFuBusy::SimdFloatCmp                 0      0.00%     14.79% # attempts to use FU when none available (Count)
system.cpu.statFuBusy::SimdFloatCvt                 0      0.00%     14.79% # attempts to use FU when none available (Count)
system.cpu.statFuBusy::SimdFloatDiv                 0      0.00%     14.79% # attempts to use FU when none available (Count)
system.cpu.statFuBusy::SimdFloatMisc                0      0.00%     14.79% # attempts to use FU when none available (Count)
system.cpu.statFuBusy::SimdFloatMult                0      0.00%     14.79% # attempts to use FU when none available (Count)
system.cpu.statFuBusy::SimdFloatMultAcc             0      0.00%     14.79% # attempts to use FU when none available (Count)
system.cpu.statFuBusy::SimdFloatSqrt                0      0.00%     14.79% # attempts to use FU when none available (Count)
system.cpu.statFuBusy::SimdReduceAdd                0      0.00%     14.79% # attempts to use FU when none available (Count)
system.cpu.statFuBusy::SimdReduceAlu                0      0.00%     14.79% # attempts to use FU when none available (Count)
system.cpu.statFuBusy::SimdReduceCmp                0      0.00%     14.79% # attempts to use FU when none available (Count)
system.cpu.statFuBusy::SimdFloatReduceAdd            0      0.00%     14.79% # attempts to use FU when none available (Count)
system.cpu.statFuBusy::SimdFloatReduceCmp            0      0.00%     14.79% # attempts to use FU when none available (Count)
system.cpu.statFuBusy::SimdAes                      0      0.00%     14.79% # attempts to use FU when none available (Count)
system.cpu.statFuBusy::SimdAesMix                   0      0.00%     14.79% # attempts to use FU when none available (Count)
system.cpu.statFuBusy::SimdSha1Hash                 0      0.00%     14.79% # attempts to use FU when none available (Count)
system.cpu.statFuBusy::SimdSha1Hash2                0      0.00%     14.79% # attempts to use FU when none available (Count)
system.cpu.statFuBusy::SimdSha256Hash               0      0.00%     14.79% # attempts to use FU when none available (Count)
system.cpu.statFuBusy::SimdSha256Hash2              0      0.00%     14.79% # attempts to use FU when none available (Count)
system.cpu.statFuBusy::SimdShaSigma2                0      0.00%     14.79% # attempts to use FU when none available (Count)
system.cpu.statFuBusy::SimdShaSigma3                0      0.00%     14.79% # attempts to use FU when none available (Count)
system.cpu.statFuBusy::SimdPredAlu                  0      0.00%     14.79% # attempts to use FU when none available (Count)
system.cpu.statFuBusy::MemRead                3020480     61.82%     76.61% # attempts to use FU when none available (Count)
system.cpu.statFuBusy::MemWrite               1142895     23.39%    100.00% # attempts to use FU when none available (Count)
system.cpu.statFuBusy::FloatMemRead                 0      0.00%    100.00% # attempts to use FU when none available (Count)
system.cpu.statFuBusy::FloatMemWrite                0      0.00%    100.00% # attempts to use FU when none available (Count)
system.cpu.statFuBusy::IprAccess                    0      0.00%    100.00% # attempts to use FU when none available (Count)
system.cpu.statFuBusy::InstPrefetch                 0      0.00%    100.00% # attempts to use FU when none available (Count)
system.cpu.statIssuedInstType_0::No_OpClass       131155      0.04%      0.04% # Number of instructions issued per FU type, per thread (Count)
system.cpu.statIssuedInstType_0::IntAlu     206662379     61.75%     61.79% # Number of instructions issued per FU type, per thread (Count)
system.cpu.statIssuedInstType_0::IntMult      1655534      0.49%     62.29% # Number of instructions issued per FU type, per thread (Count)
system.cpu.statIssuedInstType_0::IntDiv        330174      0.10%     62.38% # Number of instructions issued per FU type, per thread (Count)
system.cpu.statIssuedInstType_0::FloatAdd        90436      0.03%     62.41% # Number of instructions issued per FU type, per thread (Count)
system.cpu.statIssuedInstType_0::FloatCmp        70488      0.02%     62.43% # Number of instructions issued per FU type, per thread (Count)
system.cpu.statIssuedInstType_0::FloatCvt            0      0.00%     62.43% # Number of instructions issued per FU type, per thread (Count)
system.cpu.statIssuedInstType_0::FloatMult        86313      0.03%     62.46% # Number of instructions issued per FU type, per thread (Count)
system.cpu.statIssuedInstType_0::FloatMultAcc            0      0.00%     62.46% # Number of instructions issued per FU type, per thread (Count)
system.cpu.statIssuedInstType_0::FloatDiv            0      0.00%     62.46% # Number of instructions issued per FU type, per thread (Count)
system.cpu.statIssuedInstType_0::FloatMisc        75367      0.02%     62.48% # Number of instructions issued per FU type, per thread (Count)
system.cpu.statIssuedInstType_0::FloatSqrt            0      0.00%     62.48% # Number of instructions issued per FU type, per thread (Count)
system.cpu.statIssuedInstType_0::SimdAdd        65595      0.02%     62.50% # Number of instructions issued per FU type, per thread (Count)
system.cpu.statIssuedInstType_0::SimdAddAcc            0      0.00%     62.50% # Number of instructions issued per FU type, per thread (Count)
system.cpu.statIssuedInstType_0::SimdAlu       131157      0.04%     62.54% # Number of instructions issued per FU type, per thread (Count)
system.cpu.statIssuedInstType_0::SimdCmp       131148      0.04%     62.58% # Number of instructions issued per FU type, per thread (Count)
system.cpu.statIssuedInstType_0::SimdCvt            0      0.00%     62.58% # Number of instructions issued per FU type, per thread (Count)
system.cpu.statIssuedInstType_0::SimdMisc       124578      0.04%     62.62% # Number of instructions issued per FU type, per thread (Count)
system.cpu.statIssuedInstType_0::SimdMult            0      0.00%     62.62% # Number of instructions issued per FU type, per thread (Count)
system.cpu.statIssuedInstType_0::SimdMultAcc            0      0.00%     62.62% # Number of instructions issued per FU type, per thread (Count)
system.cpu.statIssuedInstType_0::SimdShift            0      0.00%     62.62% # Number of instructions issued per FU type, per thread (Count)
system.cpu.statIssuedInstType_0::SimdShiftAcc            0      0.00%     62.62% # Number of instructions issued per FU type, per thread (Count)
system.cpu.statIssuedInstType_0::SimdDiv            0      0.00%     62.62% # Number of instructions issued per FU type, per thread (Count)
system.cpu.statIssuedInstType_0::SimdSqrt            0      0.00%     62.62% # Number of instructions issued per FU type, per thread (Count)
system.cpu.statIssuedInstType_0::SimdFloatAdd            0      0.00%     62.62% # Number of instructions issued per FU type, per thread (Count)
system.cpu.statIssuedInstType_0::SimdFloatAlu            0      0.00%     62.62% # Number of instructions issued per FU type, per thread (Count)
system.cpu.statIssuedInstType_0::SimdFloatCmp            0      0.00%     62.62% # Number of instructions issued per FU type, per thread (Count)
system.cpu.statIssuedInstType_0::SimdFloatCvt            0      0.00%     62.62% # Number of instructions issued per FU type, per thread (Count)
system.cpu.statIssuedInstType_0::SimdFloatDiv            0      0.00%     62.62% # Number of instructions issued per FU type, per thread (Count)
system.cpu.statIssuedInstType_0::SimdFloatMisc            0      0.00%     62.62% # Number of instructions issued per FU type, per thread (Count)
system.cpu.statIssuedInstType_0::SimdFloatMult            0      0.00%     62.62% # Number of instructions issued per FU type, per thread (Count)
system.cpu.statIssuedInstType_0::SimdFloatMultAcc            0      0.00%     62.62% # Number of instructions issued per FU type, per thread (Count)
system.cpu.statIssuedInstType_0::SimdFloatSqrt            0      0.00%     62.62% # Number of instructions issued per FU type, per thread (Count)
system.cpu.statIssuedInstType_0::SimdReduceAdd            0      0.00%     62.62% # Number of instructions issued per FU type, per thread (Count)
system.cpu.statIssuedInstType_0::SimdReduceAlu            0      0.00%     62.62% # Number of instructions issued per FU type, per thread (Count)
system.cpu.statIssuedInstType_0::SimdReduceCmp            0      0.00%     62.62% # Number of instructions issued per FU type, per thread (Count)
system.cpu.statIssuedInstType_0::SimdFloatReduceAdd            0      0.00%     62.62% # Number of instructions issued per FU type, per thread (Count)
system.cpu.statIssuedInstType_0::SimdFloatReduceCmp            0      0.00%     62.62% # Number of instructions issued per FU type, per thread (Count)
system.cpu.statIssuedInstType_0::SimdAes            0      0.00%     62.62% # Number of instructions issued per FU type, per thread (Count)
system.cpu.statIssuedInstType_0::SimdAesMix            0      0.00%     62.62% # Number of instructions issued per FU type, per thread (Count)
system.cpu.statIssuedInstType_0::SimdSha1Hash            0      0.00%     62.62% # Number of instructions issued per FU type, per thread (Count)
system.cpu.statIssuedInstType_0::SimdSha1Hash2            0      0.00%     62.62% # Number of instructions issued per FU type, per thread (Count)
system.cpu.statIssuedInstType_0::SimdSha256Hash            0      0.00%     62.62% # Number of instructions issued per FU type, per thread (Count)
system.cpu.statIssuedInstType_0::SimdSha256Hash2            0      0.00%     62.62% # Number of instructions issued per FU type, per thread (Count)
system.cpu.statIssuedInstType_0::SimdShaSigma2            0      0.00%     62.62% # Number of instructions issued per FU type, per thread (Count)
system.cpu.statIssuedInstType_0::SimdShaSigma3            0      0.00%     62.62% # Number of instructions issued per FU type, per thread (Count)
system.cpu.statIssuedInstType_0::SimdPredAlu            0      0.00%     62.62% # Number of instructions issued per FU type, per thread (Count)
system.cpu.statIssuedInstType_0::MemRead     98290627     29.37%     91.99% # Number of instructions issued per FU type, per thread (Count)
system.cpu.statIssuedInstType_0::MemWrite     26819454      8.01%    100.00% # Number of instructions issued per FU type, per thread (Count)
system.cpu.statIssuedInstType_0::FloatMemRead            0      0.00%    100.00% # Number of instructions issued per FU type, per thread (Count)
system.cpu.statIssuedInstType_0::FloatMemWrite            0      0.00%    100.00% # Number of instructions issued per FU type, per thread (Count)
system.cpu.statIssuedInstType_0::IprAccess            0      0.00%    100.00% # Number of instructions issued per FU type, per thread (Count)
system.cpu.statIssuedInstType_0::InstPrefetch            0      0.00%    100.00% # Number of instructions issued per FU type, per thread (Count)
system.cpu.statIssuedInstType_0::total      334664405                       # Number of instructions issued per FU type, per thread (Count)
system.cpu.issueRate                         1.344153                       # Inst issue rate ((Count/Cycle))
system.cpu.fuBusy                             4886237                       # FU busy when requested (Count)
system.cpu.fuBusyRate                        0.014600                       # FU busy rate (busy events/executed inst) ((Count/Count))
system.cpu.intInstQueueReads                914861298                       # Number of integer instruction queue reads (Count)
system.cpu.intInstQueueWrites               344173258                       # Number of integer instruction queue writes (Count)
system.cpu.intInstQueueWakeupAccesses       328474134                       # Number of integer instruction queue wakeup accesses (Count)
system.cpu.fpInstQueueReads                         0                       # Number of floating instruction queue reads (Count)
system.cpu.fpInstQueueWrites                        0                       # Number of floating instruction queue writes (Count)
system.cpu.fpInstQueueWakeupAccesses                0                       # Number of floating instruction queue wakeup accesses (Count)
system.cpu.vecInstQueueReads                  6006896                       # Number of vector instruction queue reads (Count)
system.cpu.vecInstQueueWrites                 3863659                       # Number of vector instruction queue writes (Count)
system.cpu.vecInstQueueWakeupAccesses         2503127                       # Number of vector instruction queue wakeup accesses (Count)
system.cpu.intAluAccesses                   336359367                       # Number of integer alu accesses (Count)
system.cpu.fpAluAccesses                            0                       # Number of floating point alu accesses (Count)
system.cpu.vecAluAccesses                     3060120                       # Number of vector alu accesses (Count)
system.cpu.numInsts                         333690472                       # Number of executed instructions (Count)
system.cpu.numLoadInsts                      98020449                       # Number of load instructions executed (Count)
system.cpu.numSquashedInsts                    973933                       # Number of squashed instructions skipped in execute (Count)
system.cpu.numSwp                                   0                       # Number of swp insts executed (Count)
system.cpu.numNop                              132138                       # Number of nop insts executed (Count)
system.cpu.numRefs                          124576988                       # Number of memory reference insts executed (Count)
system.cpu.numBranches                       51389662                       # Number of branches executed (Count)
system.cpu.numStoreInsts                     26556539                       # Number of stores executed (Count)
system.cpu.numRate                           1.340241                       # Inst execution rate ((Count/Cycle))
system.cpu.timesIdled                          138769                       # Number of times that the entire CPU went into an idle state and unscheduled itself (Count)
system.cpu.idleCycles                         2645044                       # Total number of cycles that the CPU has spent unscheduled due to idling (Cycle)
system.cpu.committedInsts                   311729465                       # Number of Instructions Simulated (Count)
system.cpu.committedOps                     323739394                       # Number of Ops (including micro ops) Simulated (Count)
system.cpu.cpi                               0.798699                       # CPI: Cycles Per Instruction ((Cycle/Count))
system.cpu.totalCpi                          0.798699                       # CPI: Total CPI of All Threads ((Cycle/Count))
system.cpu.ipc                               1.252037                       # IPC: Instructions Per Cycle ((Count/Cycle))
system.cpu.totalIpc                          1.252037                       # IPC: Total IPC of All Threads ((Count/Cycle))
system.cpu.intRegfileReads                  379282377                       # Number of integer regfile reads (Count)
system.cpu.intRegfileWrites                 256844957                       # Number of integer regfile writes (Count)
system.cpu.vecRegfileReads                    2523470                       # number of vector regfile reads (Count)
system.cpu.vecRegfileWrites                   1136709                       # number of vector regfile writes (Count)
system.cpu.ccRegfileReads                    98759721                       # number of cc regfile reads (Count)
system.cpu.ccRegfileWrites                   98387241                       # number of cc regfile writes (Count)
system.cpu.miscRegfileReads                 661519672                       # number of misc regfile reads (Count)
system.cpu.miscRegfileWrites                   452996                       # number of misc regfile writes (Count)
system.cpu.MemDepUnit__0.insertedLoads       96564259                       # Number of loads inserted to the mem dependence unit. (Count)
system.cpu.MemDepUnit__0.insertedStores      27720985                       # Number of stores inserted to the mem dependence unit. (Count)
system.cpu.MemDepUnit__0.conflictingLoads     31037769                       # Number of conflicting loads. (Count)
system.cpu.MemDepUnit__0.conflictingStores      3644842                       # Number of conflicting stores. (Count)
system.cpu.MemDepUnit__1.insertedLoads              0                       # Number of loads inserted to the mem dependence unit. (Count)
system.cpu.MemDepUnit__1.insertedStores             0                       # Number of stores inserted to the mem dependence unit. (Count)
system.cpu.MemDepUnit__1.conflictingLoads            0                       # Number of conflicting loads. (Count)
system.cpu.MemDepUnit__1.conflictingStores            0                       # Number of conflicting stores. (Count)
system.cpu.MemDepUnit__2.insertedLoads              0                       # Number of loads inserted to the mem dependence unit. (Count)
system.cpu.MemDepUnit__2.insertedStores             0                       # Number of stores inserted to the mem dependence unit. (Count)
system.cpu.MemDepUnit__2.conflictingLoads            0                       # Number of conflicting loads. (Count)
system.cpu.MemDepUnit__2.conflictingStores            0                       # Number of conflicting stores. (Count)
system.cpu.MemDepUnit__3.insertedLoads              0                       # Number of loads inserted to the mem dependence unit. (Count)
system.cpu.MemDepUnit__3.insertedStores             0                       # Number of stores inserted to the mem dependence unit. (Count)
system.cpu.MemDepUnit__3.conflictingLoads            0                       # Number of conflicting loads. (Count)
system.cpu.MemDepUnit__3.conflictingStores            0                       # Number of conflicting stores. (Count)
system.cpu.branchPred.lookups                53195369                       # Number of BP lookups (Count)
system.cpu.branchPred.condPredicted          36883215                       # Number of conditional branches predicted (Count)
system.cpu.branchPred.condIncorrect            307659                       # Number of conditional branches incorrect (Count)
system.cpu.branchPred.BTBLookups             31953193                       # Number of BTB lookups (Count)
system.cpu.branchPred.BTBHits                31853883                       # Number of BTB hits (Count)
system.cpu.branchPred.BTBHitRatio            0.996892                       # BTB Hit Ratio (Ratio)
system.cpu.branchPred.RASUsed                 1490740                       # Number of times the RAS was used to get a target. (Count)
system.cpu.branchPred.RASIncorrect                 39                       # Number of incorrect RAS predictions. (Count)
system.cpu.branchPred.indirectLookups          268873                       # Number of indirect predictor lookups. (Count)
system.cpu.branchPred.indirectHits             267309                       # Number of indirect target hits. (Count)
system.cpu.branchPred.indirectMisses             1564                       # Number of indirect misses. (Count)
system.cpu.branchPred.indirectMispredicted          203                       # Number of mispredicted indirect branches. (Count)
system.cpu.commit.commitSquashedInsts        12130460                       # The number of squashed insts skipped by commit (Count)
system.cpu.commit.commitNonSpecStalls          196817                       # The number of times commit has been forced to stall to communicate backwards (Count)
system.cpu.commit.branchMispredicts            280648                       # The number of times a branch was mispredicted (Count)
system.cpu.commit.numCommittedDist::samples    244640792                       # Number of insts commited each cycle (Count)
system.cpu.commit.numCommittedDist::mean     1.323804                       # Number of insts commited each cycle (Count)
system.cpu.commit.numCommittedDist::stdev     2.714187                       # Number of insts commited each cycle (Count)
system.cpu.commit.numCommittedDist::underflows            0      0.00%      0.00% # Number of insts commited each cycle (Count)
system.cpu.commit.numCommittedDist::0       176122864     71.99%     71.99% # Number of insts commited each cycle (Count)
system.cpu.commit.numCommittedDist::1        19982994      8.17%     80.16% # Number of insts commited each cycle (Count)
system.cpu.commit.numCommittedDist::2         9747835      3.98%     84.15% # Number of insts commited each cycle (Count)
system.cpu.commit.numCommittedDist::3         2644292      1.08%     85.23% # Number of insts commited each cycle (Count)
system.cpu.commit.numCommittedDist::4         1210864      0.49%     85.72% # Number of insts commited each cycle (Count)
system.cpu.commit.numCommittedDist::5         1440195      0.59%     86.31% # Number of insts commited each cycle (Count)
system.cpu.commit.numCommittedDist::6         1162086      0.48%     86.78% # Number of insts commited each cycle (Count)
system.cpu.commit.numCommittedDist::7         1209387      0.49%     87.28% # Number of insts commited each cycle (Count)
system.cpu.commit.numCommittedDist::8        31120275     12.72%    100.00% # Number of insts commited each cycle (Count)
system.cpu.commit.numCommittedDist::overflows            0      0.00%    100.00% # Number of insts commited each cycle (Count)
system.cpu.commit.numCommittedDist::min_value            0                       # Number of insts commited each cycle (Count)
system.cpu.commit.numCommittedDist::max_value            8                       # Number of insts commited each cycle (Count)
system.cpu.commit.numCommittedDist::total    244640792                       # Number of insts commited each cycle (Count)
system.cpu.commit.instsCommitted            311846467                       # Number of instructions committed (Count)
system.cpu.commit.opsCommitted              323856396                       # Number of ops (including micro ops) committed (Count)
system.cpu.commit.memRefs                   119553012                       # Number of memory references committed (Count)
system.cpu.commit.loads                      94423684                       # Number of loads committed (Count)
system.cpu.commit.amos                          98358                       # Number of atomic instructions committed (Count)
system.cpu.commit.membars                       98368                       # Number of memory barriers committed (Count)
system.cpu.commit.branches                   50471261                       # Number of branches committed (Count)
system.cpu.commit.vectorInstructions          2125565                       # Number of committed Vector instructions. (Count)
system.cpu.commit.floating                          0                       # Number of committed floating point instructions. (Count)
system.cpu.commit.integer                   280143906                       # Number of committed integer instructions. (Count)
system.cpu.commit.functionCalls               1352397                       # Number of function calls committed. (Count)
system.cpu.commit.committedInstType_0::No_OpClass       131142      0.04%      0.04% # Class of committed instruction (Count)
system.cpu.commit.committedInstType_0::IntAlu    201426102     62.20%     62.24% # Class of committed instruction (Count)
system.cpu.commit.committedInstType_0::IntMult      1655054      0.51%     62.75% # Class of committed instruction (Count)
system.cpu.commit.committedInstType_0::IntDiv       330123      0.10%     62.85% # Class of committed instruction (Count)
system.cpu.commit.committedInstType_0::FloatAdd        90436      0.03%     62.88% # Class of committed instruction (Count)
system.cpu.commit.committedInstType_0::FloatCmp        65536      0.02%     62.90% # Class of committed instruction (Count)
system.cpu.commit.committedInstType_0::FloatCvt            0      0.00%     62.90% # Class of committed instruction (Count)
system.cpu.commit.committedInstType_0::FloatMult        83883      0.03%     62.92% # Class of committed instruction (Count)
system.cpu.commit.committedInstType_0::FloatMultAcc            0      0.00%     62.92% # Class of committed instruction (Count)
system.cpu.commit.committedInstType_0::FloatDiv            0      0.00%     62.92% # Class of committed instruction (Count)
system.cpu.commit.committedInstType_0::FloatMisc        68812      0.02%     62.94% # Class of committed instruction (Count)
system.cpu.commit.committedInstType_0::FloatSqrt            0      0.00%     62.94% # Class of committed instruction (Count)
system.cpu.commit.committedInstType_0::SimdAdd        65560      0.02%     62.97% # Class of committed instruction (Count)
system.cpu.commit.committedInstType_0::SimdAddAcc            0      0.00%     62.97% # Class of committed instruction (Count)
system.cpu.commit.committedInstType_0::SimdAlu       131100      0.04%     63.01% # Class of committed instruction (Count)
system.cpu.commit.committedInstType_0::SimdCmp       131096      0.04%     63.05% # Class of committed instruction (Count)
system.cpu.commit.committedInstType_0::SimdCvt            0      0.00%     63.05% # Class of committed instruction (Count)
system.cpu.commit.committedInstType_0::SimdMisc       124540      0.04%     63.08% # Class of committed instruction (Count)
system.cpu.commit.committedInstType_0::SimdMult            0      0.00%     63.08% # Class of committed instruction (Count)
system.cpu.commit.committedInstType_0::SimdMultAcc            0      0.00%     63.08% # Class of committed instruction (Count)
system.cpu.commit.committedInstType_0::SimdShift            0      0.00%     63.08% # Class of committed instruction (Count)
system.cpu.commit.committedInstType_0::SimdShiftAcc            0      0.00%     63.08% # Class of committed instruction (Count)
system.cpu.commit.committedInstType_0::SimdDiv            0      0.00%     63.08% # Class of committed instruction (Count)
system.cpu.commit.committedInstType_0::SimdSqrt            0      0.00%     63.08% # Class of committed instruction (Count)
system.cpu.commit.committedInstType_0::SimdFloatAdd            0      0.00%     63.08% # Class of committed instruction (Count)
system.cpu.commit.committedInstType_0::SimdFloatAlu            0      0.00%     63.08% # Class of committed instruction (Count)
system.cpu.commit.committedInstType_0::SimdFloatCmp            0      0.00%     63.08% # Class of committed instruction (Count)
system.cpu.commit.committedInstType_0::SimdFloatCvt            0      0.00%     63.08% # Class of committed instruction (Count)
system.cpu.commit.committedInstType_0::SimdFloatDiv            0      0.00%     63.08% # Class of committed instruction (Count)
system.cpu.commit.committedInstType_0::SimdFloatMisc            0      0.00%     63.08% # Class of committed instruction (Count)
system.cpu.commit.committedInstType_0::SimdFloatMult            0      0.00%     63.08% # Class of committed instruction (Count)
system.cpu.commit.committedInstType_0::SimdFloatMultAcc            0      0.00%     63.08% # Class of committed instruction (Count)
system.cpu.commit.committedInstType_0::SimdFloatSqrt            0      0.00%     63.08% # Class of committed instruction (Count)
system.cpu.commit.committedInstType_0::SimdReduceAdd            0      0.00%     63.08% # Class of committed instruction (Count)
system.cpu.commit.committedInstType_0::SimdReduceAlu            0      0.00%     63.08% # Class of committed instruction (Count)
system.cpu.commit.committedInstType_0::SimdReduceCmp            0      0.00%     63.08% # Class of committed instruction (Count)
system.cpu.commit.committedInstType_0::SimdFloatReduceAdd            0      0.00%     63.08% # Class of committed instruction (Count)
system.cpu.commit.committedInstType_0::SimdFloatReduceCmp            0      0.00%     63.08% # Class of committed instruction (Count)
system.cpu.commit.committedInstType_0::SimdAes            0      0.00%     63.08% # Class of committed instruction (Count)
system.cpu.commit.committedInstType_0::SimdAesMix            0      0.00%     63.08% # Class of committed instruction (Count)
system.cpu.commit.committedInstType_0::SimdSha1Hash            0      0.00%     63.08% # Class of committed instruction (Count)
system.cpu.commit.committedInstType_0::SimdSha1Hash2            0      0.00%     63.08% # Class of committed instruction (Count)
system.cpu.commit.committedInstType_0::SimdSha256Hash            0      0.00%     63.08% # Class of committed instruction (Count)
system.cpu.commit.committedInstType_0::SimdSha256Hash2            0      0.00%     63.08% # Class of committed instruction (Count)
system.cpu.commit.committedInstType_0::SimdShaSigma2            0      0.00%     63.08% # Class of committed instruction (Count)
system.cpu.commit.committedInstType_0::SimdShaSigma3            0      0.00%     63.08% # Class of committed instruction (Count)
system.cpu.commit.committedInstType_0::SimdPredAlu            0      0.00%     63.08% # Class of committed instruction (Count)
system.cpu.commit.committedInstType_0::MemRead     94423684     29.16%     92.24% # Class of committed instruction (Count)
system.cpu.commit.committedInstType_0::MemWrite     25129328      7.76%    100.00% # Class of committed instruction (Count)
system.cpu.commit.committedInstType_0::FloatMemRead            0      0.00%    100.00% # Class of committed instruction (Count)
system.cpu.commit.committedInstType_0::FloatMemWrite            0      0.00%    100.00% # Class of committed instruction (Count)
system.cpu.commit.committedInstType_0::IprAccess            0      0.00%    100.00% # Class of committed instruction (Count)
system.cpu.commit.committedInstType_0::InstPrefetch            0      0.00%    100.00% # Class of committed instruction (Count)
system.cpu.commit.committedInstType_0::total    323856396                       # Class of committed instruction (Count)
system.cpu.commit.commitEligibleSamples      31120275                       # number cycles where commit BW limit reached (Cycle)
system.cpu.dcache.demandHits::cpu.data       77712709                       # number of demand (read+write) hits (Count)
system.cpu.dcache.demandHits::total          77712709                       # number of demand (read+write) hits (Count)
system.cpu.dcache.overallHits::cpu.data      77815131                       # number of overall hits (Count)
system.cpu.dcache.overallHits::total         77815131                       # number of overall hits (Count)
system.cpu.dcache.demandMisses::cpu.data      8435316                       # number of demand (read+write) misses (Count)
system.cpu.dcache.demandMisses::total         8435316                       # number of demand (read+write) misses (Count)
system.cpu.dcache.overallMisses::cpu.data      8435385                       # number of overall misses (Count)
system.cpu.dcache.overallMisses::total        8435385                       # number of overall misses (Count)
system.cpu.dcache.demandMissLatency::cpu.data 388331805333                       # number of demand (read+write) miss ticks (Tick)
system.cpu.dcache.demandMissLatency::total 388331805333                       # number of demand (read+write) miss ticks (Tick)
system.cpu.dcache.overallMissLatency::cpu.data 388331805333                       # number of overall miss ticks (Tick)
system.cpu.dcache.overallMissLatency::total 388331805333                       # number of overall miss ticks (Tick)
system.cpu.dcache.demandAccesses::cpu.data     86148025                       # number of demand (read+write) accesses (Count)
system.cpu.dcache.demandAccesses::total      86148025                       # number of demand (read+write) accesses (Count)
system.cpu.dcache.overallAccesses::cpu.data     86250516                       # number of overall (read+write) accesses (Count)
system.cpu.dcache.overallAccesses::total     86250516                       # number of overall (read+write) accesses (Count)
system.cpu.dcache.demandMissRate::cpu.data     0.097917                       # miss rate for demand accesses (Ratio)
system.cpu.dcache.demandMissRate::total      0.097917                       # miss rate for demand accesses (Ratio)
system.cpu.dcache.overallMissRate::cpu.data     0.097801                       # miss rate for overall accesses (Ratio)
system.cpu.dcache.overallMissRate::total     0.097801                       # miss rate for overall accesses (Ratio)
system.cpu.dcache.demandAvgMissLatency::cpu.data 46036.426535                       # average overall miss latency ((Cycle/Count))
system.cpu.dcache.demandAvgMissLatency::total 46036.426535                       # average overall miss latency ((Cycle/Count))
system.cpu.dcache.overallAvgMissLatency::cpu.data 46036.049965                       # average overall miss latency ((Cycle/Count))
system.cpu.dcache.overallAvgMissLatency::total 46036.049965                       # average overall miss latency ((Cycle/Count))
system.cpu.dcache.blockedCycles::no_mshrs       901873                       # number of cycles access was blocked (Cycle)
system.cpu.dcache.blockedCycles::no_targets           72                       # number of cycles access was blocked (Cycle)
system.cpu.dcache.blockedCauses::no_mshrs        17853                       # number of times access was blocked (Count)
system.cpu.dcache.blockedCauses::no_targets            2                       # number of times access was blocked (Count)
system.cpu.dcache.avgBlocked::no_mshrs      50.516608                       # average number of cycles each access was blocked ((Cycle/Count))
system.cpu.dcache.avgBlocked::no_targets           36                       # average number of cycles each access was blocked ((Cycle/Count))
system.cpu.dcache.writebacks::writebacks        61084                       # number of writebacks (Count)
system.cpu.dcache.writebacks::total             61084                       # number of writebacks (Count)
system.cpu.dcache.demandMshrHits::cpu.data      5669619                       # number of demand (read+write) MSHR hits (Count)
system.cpu.dcache.demandMshrHits::total       5669619                       # number of demand (read+write) MSHR hits (Count)
system.cpu.dcache.overallMshrHits::cpu.data      5669619                       # number of overall MSHR hits (Count)
system.cpu.dcache.overallMshrHits::total      5669619                       # number of overall MSHR hits (Count)
system.cpu.dcache.demandMshrMisses::cpu.data      2765697                       # number of demand (read+write) MSHR misses (Count)
system.cpu.dcache.demandMshrMisses::total      2765697                       # number of demand (read+write) MSHR misses (Count)
system.cpu.dcache.overallMshrMisses::cpu.data      2765766                       # number of overall MSHR misses (Count)
system.cpu.dcache.overallMshrMisses::total      2765766                       # number of overall MSHR misses (Count)
system.cpu.dcache.demandMshrMissLatency::cpu.data 148459224406                       # number of demand (read+write) MSHR miss ticks (Tick)
system.cpu.dcache.demandMshrMissLatency::total 148459224406                       # number of demand (read+write) MSHR miss ticks (Tick)
system.cpu.dcache.overallMshrMissLatency::cpu.data 148463445406                       # number of overall MSHR miss ticks (Tick)
system.cpu.dcache.overallMshrMissLatency::total 148463445406                       # number of overall MSHR miss ticks (Tick)
system.cpu.dcache.demandMshrMissRate::cpu.data     0.032104                       # mshr miss ratio for demand accesses (Ratio)
system.cpu.dcache.demandMshrMissRate::total     0.032104                       # mshr miss ratio for demand accesses (Ratio)
system.cpu.dcache.overallMshrMissRate::cpu.data     0.032067                       # mshr miss ratio for overall accesses (Ratio)
system.cpu.dcache.overallMshrMissRate::total     0.032067                       # mshr miss ratio for overall accesses (Ratio)
system.cpu.dcache.demandAvgMshrMissLatency::cpu.data 53678.774069                       # average overall mshr miss latency ((Cycle/Count))
system.cpu.dcache.demandAvgMshrMissLatency::total 53678.774069                       # average overall mshr miss latency ((Cycle/Count))
system.cpu.dcache.overallAvgMshrMissLatency::cpu.data 53678.961057                       # average overall mshr miss latency ((Cycle/Count))
system.cpu.dcache.overallAvgMshrMissLatency::total 53678.961057                       # average overall mshr miss latency ((Cycle/Count))
system.cpu.dcache.replacements                2765257                       # number of replacements (Count)
system.cpu.dcache.LoadLockedReq.hits::cpu.data           41                       # number of LoadLockedReq hits (Count)
system.cpu.dcache.LoadLockedReq.hits::total           41                       # number of LoadLockedReq hits (Count)
system.cpu.dcache.LoadLockedReq.misses::cpu.data            6                       # number of LoadLockedReq misses (Count)
system.cpu.dcache.LoadLockedReq.misses::total            6                       # number of LoadLockedReq misses (Count)
system.cpu.dcache.LoadLockedReq.missLatency::cpu.data       405500                       # number of LoadLockedReq miss ticks (Tick)
system.cpu.dcache.LoadLockedReq.missLatency::total       405500                       # number of LoadLockedReq miss ticks (Tick)
system.cpu.dcache.LoadLockedReq.accesses::cpu.data           47                       # number of LoadLockedReq accesses(hits+misses) (Count)
system.cpu.dcache.LoadLockedReq.accesses::total           47                       # number of LoadLockedReq accesses(hits+misses) (Count)
system.cpu.dcache.LoadLockedReq.missRate::cpu.data     0.127660                       # miss rate for LoadLockedReq accesses (Ratio)
system.cpu.dcache.LoadLockedReq.missRate::total     0.127660                       # miss rate for LoadLockedReq accesses (Ratio)
system.cpu.dcache.LoadLockedReq.avgMissLatency::cpu.data 67583.333333                       # average LoadLockedReq miss latency ((Tick/Count))
system.cpu.dcache.LoadLockedReq.avgMissLatency::total 67583.333333                       # average LoadLockedReq miss latency ((Tick/Count))
system.cpu.dcache.LoadLockedReq.mshrHits::cpu.data            3                       # number of LoadLockedReq MSHR hits (Count)
system.cpu.dcache.LoadLockedReq.mshrHits::total            3                       # number of LoadLockedReq MSHR hits (Count)
system.cpu.dcache.LoadLockedReq.mshrMisses::cpu.data            3                       # number of LoadLockedReq MSHR misses (Count)
system.cpu.dcache.LoadLockedReq.mshrMisses::total            3                       # number of LoadLockedReq MSHR misses (Count)
system.cpu.dcache.LoadLockedReq.mshrMissLatency::cpu.data       255500                       # number of LoadLockedReq MSHR miss ticks (Tick)
system.cpu.dcache.LoadLockedReq.mshrMissLatency::total       255500                       # number of LoadLockedReq MSHR miss ticks (Tick)
system.cpu.dcache.LoadLockedReq.mshrMissRate::cpu.data     0.063830                       # mshr miss rate for LoadLockedReq accesses (Ratio)
system.cpu.dcache.LoadLockedReq.mshrMissRate::total     0.063830                       # mshr miss rate for LoadLockedReq accesses (Ratio)
system.cpu.dcache.LoadLockedReq.avgMshrMissLatency::cpu.data 85166.666667                       # average LoadLockedReq mshr miss latency ((Tick/Count))
system.cpu.dcache.LoadLockedReq.avgMshrMissLatency::total 85166.666667                       # average LoadLockedReq mshr miss latency ((Tick/Count))
system.cpu.dcache.ReadReq.hits::cpu.data     52759358                       # number of ReadReq hits (Count)
system.cpu.dcache.ReadReq.hits::total        52759358                       # number of ReadReq hits (Count)
system.cpu.dcache.ReadReq.misses::cpu.data      8357700                       # number of ReadReq misses (Count)
system.cpu.dcache.ReadReq.misses::total       8357700                       # number of ReadReq misses (Count)
system.cpu.dcache.ReadReq.missLatency::cpu.data 382581066500                       # number of ReadReq miss ticks (Tick)
system.cpu.dcache.ReadReq.missLatency::total 382581066500                       # number of ReadReq miss ticks (Tick)
system.cpu.dcache.ReadReq.accesses::cpu.data     61117058                       # number of ReadReq accesses(hits+misses) (Count)
system.cpu.dcache.ReadReq.accesses::total     61117058                       # number of ReadReq accesses(hits+misses) (Count)
system.cpu.dcache.ReadReq.missRate::cpu.data     0.136749                       # miss rate for ReadReq accesses (Ratio)
system.cpu.dcache.ReadReq.missRate::total     0.136749                       # miss rate for ReadReq accesses (Ratio)
system.cpu.dcache.ReadReq.avgMissLatency::cpu.data 45775.879309                       # average ReadReq miss latency ((Tick/Count))
system.cpu.dcache.ReadReq.avgMissLatency::total 45775.879309                       # average ReadReq miss latency ((Tick/Count))
system.cpu.dcache.ReadReq.mshrHits::cpu.data      5609093                       # number of ReadReq MSHR hits (Count)
system.cpu.dcache.ReadReq.mshrHits::total      5609093                       # number of ReadReq MSHR hits (Count)
system.cpu.dcache.ReadReq.mshrMisses::cpu.data      2748607                       # number of ReadReq MSHR misses (Count)
system.cpu.dcache.ReadReq.mshrMisses::total      2748607                       # number of ReadReq MSHR misses (Count)
system.cpu.dcache.ReadReq.mshrMissLatency::cpu.data 147129175500                       # number of ReadReq MSHR miss ticks (Tick)
system.cpu.dcache.ReadReq.mshrMissLatency::total 147129175500                       # number of ReadReq MSHR miss ticks (Tick)
system.cpu.dcache.ReadReq.mshrMissRate::cpu.data     0.044973                       # mshr miss rate for ReadReq accesses (Ratio)
system.cpu.dcache.ReadReq.mshrMissRate::total     0.044973                       # mshr miss rate for ReadReq accesses (Ratio)
system.cpu.dcache.ReadReq.avgMshrMissLatency::cpu.data 53528.633049                       # average ReadReq mshr miss latency ((Tick/Count))
system.cpu.dcache.ReadReq.avgMshrMissLatency::total 53528.633049                       # average ReadReq mshr miss latency ((Tick/Count))
system.cpu.dcache.SoftPFReq.hits::cpu.data       102422                       # number of SoftPFReq hits (Count)
system.cpu.dcache.SoftPFReq.hits::total        102422                       # number of SoftPFReq hits (Count)
system.cpu.dcache.SoftPFReq.misses::cpu.data           69                       # number of SoftPFReq misses (Count)
system.cpu.dcache.SoftPFReq.misses::total           69                       # number of SoftPFReq misses (Count)
system.cpu.dcache.SoftPFReq.accesses::cpu.data       102491                       # number of SoftPFReq accesses(hits+misses) (Count)
system.cpu.dcache.SoftPFReq.accesses::total       102491                       # number of SoftPFReq accesses(hits+misses) (Count)
system.cpu.dcache.SoftPFReq.missRate::cpu.data     0.000673                       # miss rate for SoftPFReq accesses (Ratio)
system.cpu.dcache.SoftPFReq.missRate::total     0.000673                       # miss rate for SoftPFReq accesses (Ratio)
system.cpu.dcache.SoftPFReq.mshrMisses::cpu.data           69                       # number of SoftPFReq MSHR misses (Count)
system.cpu.dcache.SoftPFReq.mshrMisses::total           69                       # number of SoftPFReq MSHR misses (Count)
system.cpu.dcache.SoftPFReq.mshrMissLatency::cpu.data      4221000                       # number of SoftPFReq MSHR miss ticks (Tick)
system.cpu.dcache.SoftPFReq.mshrMissLatency::total      4221000                       # number of SoftPFReq MSHR miss ticks (Tick)
system.cpu.dcache.SoftPFReq.mshrMissRate::cpu.data     0.000673                       # mshr miss rate for SoftPFReq accesses (Ratio)
system.cpu.dcache.SoftPFReq.mshrMissRate::total     0.000673                       # mshr miss rate for SoftPFReq accesses (Ratio)
system.cpu.dcache.SoftPFReq.avgMshrMissLatency::cpu.data 61173.913043                       # average SoftPFReq mshr miss latency ((Tick/Count))
system.cpu.dcache.SoftPFReq.avgMshrMissLatency::total 61173.913043                       # average SoftPFReq mshr miss latency ((Tick/Count))
system.cpu.dcache.StoreCondReq.hits::cpu.data           10                       # number of StoreCondReq hits (Count)
system.cpu.dcache.StoreCondReq.hits::total           10                       # number of StoreCondReq hits (Count)
system.cpu.dcache.StoreCondReq.accesses::cpu.data           10                       # number of StoreCondReq accesses(hits+misses) (Count)
system.cpu.dcache.StoreCondReq.accesses::total           10                       # number of StoreCondReq accesses(hits+misses) (Count)
system.cpu.dcache.SwapReq.hits::cpu.data        98358                       # number of SwapReq hits (Count)
system.cpu.dcache.SwapReq.hits::total           98358                       # number of SwapReq hits (Count)
system.cpu.dcache.SwapReq.accesses::cpu.data        98358                       # number of SwapReq accesses(hits+misses) (Count)
system.cpu.dcache.SwapReq.accesses::total        98358                       # number of SwapReq accesses(hits+misses) (Count)
system.cpu.dcache.WriteLineReq.misses::cpu.data         2054                       # number of WriteLineReq misses (Count)
system.cpu.dcache.WriteLineReq.misses::total         2054                       # number of WriteLineReq misses (Count)
system.cpu.dcache.WriteLineReq.missLatency::cpu.data     40842417                       # number of WriteLineReq miss ticks (Tick)
system.cpu.dcache.WriteLineReq.missLatency::total     40842417                       # number of WriteLineReq miss ticks (Tick)
system.cpu.dcache.WriteLineReq.accesses::cpu.data         2054                       # number of WriteLineReq accesses(hits+misses) (Count)
system.cpu.dcache.WriteLineReq.accesses::total         2054                       # number of WriteLineReq accesses(hits+misses) (Count)
system.cpu.dcache.WriteLineReq.missRate::cpu.data            1                       # miss rate for WriteLineReq accesses (Ratio)
system.cpu.dcache.WriteLineReq.missRate::total            1                       # miss rate for WriteLineReq accesses (Ratio)
system.cpu.dcache.WriteLineReq.avgMissLatency::cpu.data 19884.331548                       # average WriteLineReq miss latency ((Tick/Count))
system.cpu.dcache.WriteLineReq.avgMissLatency::total 19884.331548                       # average WriteLineReq miss latency ((Tick/Count))
system.cpu.dcache.WriteLineReq.mshrMisses::cpu.data         2054                       # number of WriteLineReq MSHR misses (Count)
system.cpu.dcache.WriteLineReq.mshrMisses::total         2054                       # number of WriteLineReq MSHR misses (Count)
system.cpu.dcache.WriteLineReq.mshrMissLatency::cpu.data     38788417                       # number of WriteLineReq MSHR miss ticks (Tick)
system.cpu.dcache.WriteLineReq.mshrMissLatency::total     38788417                       # number of WriteLineReq MSHR miss ticks (Tick)
system.cpu.dcache.WriteLineReq.mshrMissRate::cpu.data            1                       # mshr miss rate for WriteLineReq accesses (Ratio)
system.cpu.dcache.WriteLineReq.mshrMissRate::total            1                       # mshr miss rate for WriteLineReq accesses (Ratio)
system.cpu.dcache.WriteLineReq.avgMshrMissLatency::cpu.data 18884.331548                       # average WriteLineReq mshr miss latency ((Tick/Count))
system.cpu.dcache.WriteLineReq.avgMshrMissLatency::total 18884.331548                       # average WriteLineReq mshr miss latency ((Tick/Count))
system.cpu.dcache.WriteReq.hits::cpu.data     24953351                       # number of WriteReq hits (Count)
system.cpu.dcache.WriteReq.hits::total       24953351                       # number of WriteReq hits (Count)
system.cpu.dcache.WriteReq.misses::cpu.data        75562                       # number of WriteReq misses (Count)
system.cpu.dcache.WriteReq.misses::total        75562                       # number of WriteReq misses (Count)
system.cpu.dcache.WriteReq.missLatency::cpu.data   5709896416                       # number of WriteReq miss ticks (Tick)
system.cpu.dcache.WriteReq.missLatency::total   5709896416                       # number of WriteReq miss ticks (Tick)
system.cpu.dcache.WriteReq.accesses::cpu.data     25028913                       # number of WriteReq accesses(hits+misses) (Count)
system.cpu.dcache.WriteReq.accesses::total     25028913                       # number of WriteReq accesses(hits+misses) (Count)
system.cpu.dcache.WriteReq.missRate::cpu.data     0.003019                       # miss rate for WriteReq accesses (Ratio)
system.cpu.dcache.WriteReq.missRate::total     0.003019                       # miss rate for WriteReq accesses (Ratio)
system.cpu.dcache.WriteReq.avgMissLatency::cpu.data 75565.713136                       # average WriteReq miss latency ((Tick/Count))
system.cpu.dcache.WriteReq.avgMissLatency::total 75565.713136                       # average WriteReq miss latency ((Tick/Count))
system.cpu.dcache.WriteReq.mshrHits::cpu.data        60526                       # number of WriteReq MSHR hits (Count)
system.cpu.dcache.WriteReq.mshrHits::total        60526                       # number of WriteReq MSHR hits (Count)
system.cpu.dcache.WriteReq.mshrMisses::cpu.data        15036                       # number of WriteReq MSHR misses (Count)
system.cpu.dcache.WriteReq.mshrMisses::total        15036                       # number of WriteReq MSHR misses (Count)
system.cpu.dcache.WriteReq.mshrMissLatency::cpu.data   1291260489                       # number of WriteReq MSHR miss ticks (Tick)
system.cpu.dcache.WriteReq.mshrMissLatency::total   1291260489                       # number of WriteReq MSHR miss ticks (Tick)
system.cpu.dcache.WriteReq.mshrMissRate::cpu.data     0.000601                       # mshr miss rate for WriteReq accesses (Ratio)
system.cpu.dcache.WriteReq.mshrMissRate::total     0.000601                       # mshr miss rate for WriteReq accesses (Ratio)
system.cpu.dcache.WriteReq.avgMshrMissLatency::cpu.data 85877.925579                       # average WriteReq mshr miss latency ((Tick/Count))
system.cpu.dcache.WriteReq.avgMshrMissLatency::total 85877.925579                       # average WriteReq mshr miss latency ((Tick/Count))
system.cpu.dcache.power_state.pwrStateResidencyTicks::UNDEFINED 124488952500                       # Cumulative time (in ticks) in various power states (Tick)
system.cpu.dcache.tags.tagsInUse           511.684158                       # Average ticks per tags in use ((Tick/Count))
system.cpu.dcache.tags.totalRefs             80679309                       # Total number of references to valid blocks. (Count)
system.cpu.dcache.tags.sampledRefs            2765769                       # Sample count of references to valid blocks. (Count)
system.cpu.dcache.tags.avgRefs              29.170661                       # Average number of references to valid blocks. ((Count/Count))
system.cpu.dcache.tags.warmupTick              145000                       # The tick when the warmup percentage was hit. (Tick)
system.cpu.dcache.tags.occupancies::cpu.data   511.684158                       # Average occupied blocks per tick, per requestor ((Count/Tick))
system.cpu.dcache.tags.avgOccs::cpu.data     0.999383                       # Average percentage of cache occupancy ((Ratio/Tick))
system.cpu.dcache.tags.avgOccs::total        0.999383                       # Average percentage of cache occupancy ((Ratio/Tick))
system.cpu.dcache.tags.occupanciesTaskId::1024          512                       # Occupied blocks per task id (Count)
system.cpu.dcache.tags.ageTaskId_1024::0           74                       # Occupied blocks per task id, per block age (Count)
system.cpu.dcache.tags.ageTaskId_1024::1            9                       # Occupied blocks per task id, per block age (Count)
system.cpu.dcache.tags.ageTaskId_1024::2           91                       # Occupied blocks per task id, per block age (Count)
system.cpu.dcache.tags.ageTaskId_1024::3          177                       # Occupied blocks per task id, per block age (Count)
system.cpu.dcache.tags.ageTaskId_1024::4          161                       # Occupied blocks per task id, per block age (Count)
system.cpu.dcache.tags.ratioOccsTaskId::1024            1                       # Ratio of occupied blocks and all blocks, per task id (Ratio)
system.cpu.dcache.tags.tagAccesses          175463631                       # Number of tag accesses (Count)
system.cpu.dcache.tags.dataAccesses         175463631                       # Number of data accesses (Count)
system.cpu.dcache.tags.power_state.pwrStateResidencyTicks::UNDEFINED 124488952500                       # Cumulative time (in ticks) in various power states (Tick)
system.cpu.decode.idleCycles                 28005325                       # Number of cycles decode is idle (Cycle)
system.cpu.decode.blockedCycles             163344845                       # Number of cycles decode is blocked (Cycle)
system.cpu.decode.runCycles                  44006640                       # Number of cycles decode is running (Cycle)
system.cpu.decode.unblockCycles              10627740                       # Number of cycles decode is unblocking (Cycle)
system.cpu.decode.squashCycles                 348312                       # Number of cycles decode is squashing (Cycle)
system.cpu.decode.branchResolved             31676750                       # Number of times decode resolved a branch (Count)
system.cpu.decode.branchMispred                 27019                       # Number of times decode detected a branch misprediction (Count)
system.cpu.decode.decodedInsts              338818427                       # Number of instructions handled by decode (Count)
system.cpu.decode.squashedInsts                133083                       # Number of squashed instructions handled by decode (Count)
system.cpu.fetch.icacheStallCycles           52950185                       # Number of cycles fetch is stalled on an Icache miss (Cycle)
system.cpu.fetch.insts                      327326812                       # Number of instructions fetch has processed (Count)
system.cpu.fetch.branches                    53195369                       # Number of branches that fetch encountered (Count)
system.cpu.fetch.predictedBranches           33611932                       # Number of branches that fetch has predicted taken (Count)
system.cpu.fetch.cycles                     193007202                       # Number of cycles fetch has run and was not squashing or blocked (Cycle)
system.cpu.fetch.squashCycles                  750646                       # Number of cycles fetch has spent squashing (Cycle)
system.cpu.fetch.miscStallCycles                   10                       # Number of cycles fetch has spent waiting on interrupts, or bad addresses, or out of MSHRs (Cycle)
system.cpu.fetch.icacheWaitRetryStallCycles          142                       # Number of stall cycles due to full MSHR (Cycle)
system.cpu.fetch.cacheLines                  49068706                       # Number of cache lines fetched (Count)
system.cpu.fetch.icacheSquashes                146828                       # Number of outstanding Icache misses that were squashed (Count)
system.cpu.fetch.nisnDist::samples          246332862                       # Number of instructions fetched each cycle (Total) (Count)
system.cpu.fetch.nisnDist::mean              1.391052                       # Number of instructions fetched each cycle (Total) (Count)
system.cpu.fetch.nisnDist::stdev             2.658460                       # Number of instructions fetched each cycle (Total) (Count)
system.cpu.fetch.nisnDist::underflows               0      0.00%      0.00% # Number of instructions fetched each cycle (Total) (Count)
system.cpu.fetch.nisnDist::0                178458206     72.45%     72.45% # Number of instructions fetched each cycle (Total) (Count)
system.cpu.fetch.nisnDist::1                 13497605      5.48%     77.93% # Number of instructions fetched each cycle (Total) (Count)
system.cpu.fetch.nisnDist::2                  3060166      1.24%     79.17% # Number of instructions fetched each cycle (Total) (Count)
system.cpu.fetch.nisnDist::3                  2420446      0.98%     80.15% # Number of instructions fetched each cycle (Total) (Count)
system.cpu.fetch.nisnDist::4                 12744782      5.17%     85.32% # Number of instructions fetched each cycle (Total) (Count)
system.cpu.fetch.nisnDist::5                  2294771      0.93%     86.26% # Number of instructions fetched each cycle (Total) (Count)
system.cpu.fetch.nisnDist::6                  2414938      0.98%     87.24% # Number of instructions fetched each cycle (Total) (Count)
system.cpu.fetch.nisnDist::7                 12695698      5.15%     92.39% # Number of instructions fetched each cycle (Total) (Count)
system.cpu.fetch.nisnDist::8                 18746250      7.61%    100.00% # Number of instructions fetched each cycle (Total) (Count)
system.cpu.fetch.nisnDist::overflows                0      0.00%    100.00% # Number of instructions fetched each cycle (Total) (Count)
system.cpu.fetch.nisnDist::min_value                0                       # Number of instructions fetched each cycle (Total) (Count)
system.cpu.fetch.nisnDist::max_value                8                       # Number of instructions fetched each cycle (Total) (Count)
system.cpu.fetch.nisnDist::total            246332862                       # Number of instructions fetched each cycle (Total) (Count)
system.cpu.fetch.branchRate                  0.213655                       # Number of branch fetches per cycle (Ratio)
system.cpu.fetch.rate                        1.314682                       # Number of inst fetches per cycle ((Count/Cycle))
system.cpu.icache.demandHits::cpu.inst       48921627                       # number of demand (read+write) hits (Count)
system.cpu.icache.demandHits::total          48921627                       # number of demand (read+write) hits (Count)
system.cpu.icache.overallHits::cpu.inst      48921627                       # number of overall hits (Count)
system.cpu.icache.overallHits::total         48921627                       # number of overall hits (Count)
system.cpu.icache.demandMisses::cpu.inst       147079                       # number of demand (read+write) misses (Count)
system.cpu.icache.demandMisses::total          147079                       # number of demand (read+write) misses (Count)
system.cpu.icache.overallMisses::cpu.inst       147079                       # number of overall misses (Count)
system.cpu.icache.overallMisses::total         147079                       # number of overall misses (Count)
system.cpu.icache.demandMissLatency::cpu.inst   3414875996                       # number of demand (read+write) miss ticks (Tick)
system.cpu.icache.demandMissLatency::total   3414875996                       # number of demand (read+write) miss ticks (Tick)
system.cpu.icache.overallMissLatency::cpu.inst   3414875996                       # number of overall miss ticks (Tick)
system.cpu.icache.overallMissLatency::total   3414875996                       # number of overall miss ticks (Tick)
system.cpu.icache.demandAccesses::cpu.inst     49068706                       # number of demand (read+write) accesses (Count)
system.cpu.icache.demandAccesses::total      49068706                       # number of demand (read+write) accesses (Count)
system.cpu.icache.overallAccesses::cpu.inst     49068706                       # number of overall (read+write) accesses (Count)
system.cpu.icache.overallAccesses::total     49068706                       # number of overall (read+write) accesses (Count)
system.cpu.icache.demandMissRate::cpu.inst     0.002997                       # miss rate for demand accesses (Ratio)
system.cpu.icache.demandMissRate::total      0.002997                       # miss rate for demand accesses (Ratio)
system.cpu.icache.overallMissRate::cpu.inst     0.002997                       # miss rate for overall accesses (Ratio)
system.cpu.icache.overallMissRate::total     0.002997                       # miss rate for overall accesses (Ratio)
system.cpu.icache.demandAvgMissLatency::cpu.inst 23217.971267                       # average overall miss latency ((Cycle/Count))
system.cpu.icache.demandAvgMissLatency::total 23217.971267                       # average overall miss latency ((Cycle/Count))
system.cpu.icache.overallAvgMissLatency::cpu.inst 23217.971267                       # average overall miss latency ((Cycle/Count))
system.cpu.icache.overallAvgMissLatency::total 23217.971267                       # average overall miss latency ((Cycle/Count))
system.cpu.icache.blockedCycles::no_mshrs         1284                       # number of cycles access was blocked (Cycle)
system.cpu.icache.blockedCycles::no_targets            0                       # number of cycles access was blocked (Cycle)
system.cpu.icache.blockedCauses::no_mshrs           23                       # number of times access was blocked (Count)
system.cpu.icache.blockedCauses::no_targets            0                       # number of times access was blocked (Count)
system.cpu.icache.avgBlocked::no_mshrs      55.826087                       # average number of cycles each access was blocked ((Cycle/Count))
system.cpu.icache.avgBlocked::no_targets          nan                       # average number of cycles each access was blocked ((Cycle/Count))
system.cpu.icache.writebacks::writebacks       144585                       # number of writebacks (Count)
system.cpu.icache.writebacks::total            144585                       # number of writebacks (Count)
system.cpu.icache.demandMshrHits::cpu.inst         1993                       # number of demand (read+write) MSHR hits (Count)
system.cpu.icache.demandMshrHits::total          1993                       # number of demand (read+write) MSHR hits (Count)
system.cpu.icache.overallMshrHits::cpu.inst         1993                       # number of overall MSHR hits (Count)
system.cpu.icache.overallMshrHits::total         1993                       # number of overall MSHR hits (Count)
system.cpu.icache.demandMshrMisses::cpu.inst       145086                       # number of demand (read+write) MSHR misses (Count)
system.cpu.icache.demandMshrMisses::total       145086                       # number of demand (read+write) MSHR misses (Count)
system.cpu.icache.overallMshrMisses::cpu.inst       145086                       # number of overall MSHR misses (Count)
system.cpu.icache.overallMshrMisses::total       145086                       # number of overall MSHR misses (Count)
system.cpu.icache.demandMshrMissLatency::cpu.inst   3239908998                       # number of demand (read+write) MSHR miss ticks (Tick)
system.cpu.icache.demandMshrMissLatency::total   3239908998                       # number of demand (read+write) MSHR miss ticks (Tick)
system.cpu.icache.overallMshrMissLatency::cpu.inst   3239908998                       # number of overall MSHR miss ticks (Tick)
system.cpu.icache.overallMshrMissLatency::total   3239908998                       # number of overall MSHR miss ticks (Tick)
system.cpu.icache.demandMshrMissRate::cpu.inst     0.002957                       # mshr miss ratio for demand accesses (Ratio)
system.cpu.icache.demandMshrMissRate::total     0.002957                       # mshr miss ratio for demand accesses (Ratio)
system.cpu.icache.overallMshrMissRate::cpu.inst     0.002957                       # mshr miss ratio for overall accesses (Ratio)
system.cpu.icache.overallMshrMissRate::total     0.002957                       # mshr miss ratio for overall accesses (Ratio)
system.cpu.icache.demandAvgMshrMissLatency::cpu.inst 22330.955420                       # average overall mshr miss latency ((Cycle/Count))
system.cpu.icache.demandAvgMshrMissLatency::total 22330.955420                       # average overall mshr miss latency ((Cycle/Count))
system.cpu.icache.overallAvgMshrMissLatency::cpu.inst 22330.955420                       # average overall mshr miss latency ((Cycle/Count))
system.cpu.icache.overallAvgMshrMissLatency::total 22330.955420                       # average overall mshr miss latency ((Cycle/Count))
system.cpu.icache.replacements                 144585                       # number of replacements (Count)
system.cpu.icache.ReadReq.hits::cpu.inst     48921627                       # number of ReadReq hits (Count)
system.cpu.icache.ReadReq.hits::total        48921627                       # number of ReadReq hits (Count)
system.cpu.icache.ReadReq.misses::cpu.inst       147079                       # number of ReadReq misses (Count)
system.cpu.icache.ReadReq.misses::total        147079                       # number of ReadReq misses (Count)
system.cpu.icache.ReadReq.missLatency::cpu.inst   3414875996                       # number of ReadReq miss ticks (Tick)
system.cpu.icache.ReadReq.missLatency::total   3414875996                       # number of ReadReq miss ticks (Tick)
system.cpu.icache.ReadReq.accesses::cpu.inst     49068706                       # number of ReadReq accesses(hits+misses) (Count)
system.cpu.icache.ReadReq.accesses::total     49068706                       # number of ReadReq accesses(hits+misses) (Count)
system.cpu.icache.ReadReq.missRate::cpu.inst     0.002997                       # miss rate for ReadReq accesses (Ratio)
system.cpu.icache.ReadReq.missRate::total     0.002997                       # miss rate for ReadReq accesses (Ratio)
system.cpu.icache.ReadReq.avgMissLatency::cpu.inst 23217.971267                       # average ReadReq miss latency ((Tick/Count))
system.cpu.icache.ReadReq.avgMissLatency::total 23217.971267                       # average ReadReq miss latency ((Tick/Count))
system.cpu.icache.ReadReq.mshrHits::cpu.inst         1993                       # number of ReadReq MSHR hits (Count)
system.cpu.icache.ReadReq.mshrHits::total         1993                       # number of ReadReq MSHR hits (Count)
system.cpu.icache.ReadReq.mshrMisses::cpu.inst       145086                       # number of ReadReq MSHR misses (Count)
system.cpu.icache.ReadReq.mshrMisses::total       145086                       # number of ReadReq MSHR misses (Count)
system.cpu.icache.ReadReq.mshrMissLatency::cpu.inst   3239908998                       # number of ReadReq MSHR miss ticks (Tick)
system.cpu.icache.ReadReq.mshrMissLatency::total   3239908998                       # number of ReadReq MSHR miss ticks (Tick)
system.cpu.icache.ReadReq.mshrMissRate::cpu.inst     0.002957                       # mshr miss rate for ReadReq accesses (Ratio)
system.cpu.icache.ReadReq.mshrMissRate::total     0.002957                       # mshr miss rate for ReadReq accesses (Ratio)
system.cpu.icache.ReadReq.avgMshrMissLatency::cpu.inst 22330.955420                       # average ReadReq mshr miss latency ((Tick/Count))
system.cpu.icache.ReadReq.avgMshrMissLatency::total 22330.955420                       # average ReadReq mshr miss latency ((Tick/Count))
system.cpu.icache.power_state.pwrStateResidencyTicks::UNDEFINED 124488952500                       # Cumulative time (in ticks) in various power states (Tick)
system.cpu.icache.tags.tagsInUse           493.565076                       # Average ticks per tags in use ((Tick/Count))
system.cpu.icache.tags.totalRefs             49066712                       # Total number of references to valid blocks. (Count)
system.cpu.icache.tags.sampledRefs             145085                       # Sample count of references to valid blocks. (Count)
system.cpu.icache.tags.avgRefs             338.192866                       # Average number of references to valid blocks. ((Count/Count))
system.cpu.icache.tags.warmupTick               77000                       # The tick when the warmup percentage was hit. (Tick)
system.cpu.icache.tags.occupancies::cpu.inst   493.565076                       # Average occupied blocks per tick, per requestor ((Count/Tick))
system.cpu.icache.tags.avgOccs::cpu.inst     0.963994                       # Average percentage of cache occupancy ((Ratio/Tick))
system.cpu.icache.tags.avgOccs::total        0.963994                       # Average percentage of cache occupancy ((Ratio/Tick))
system.cpu.icache.tags.occupanciesTaskId::1024          500                       # Occupied blocks per task id (Count)
system.cpu.icache.tags.ageTaskId_1024::0          101                       # Occupied blocks per task id, per block age (Count)
system.cpu.icache.tags.ageTaskId_1024::1            1                       # Occupied blocks per task id, per block age (Count)
system.cpu.icache.tags.ageTaskId_1024::2            1                       # Occupied blocks per task id, per block age (Count)
system.cpu.icache.tags.ageTaskId_1024::3            8                       # Occupied blocks per task id, per block age (Count)
system.cpu.icache.tags.ageTaskId_1024::4          389                       # Occupied blocks per task id, per block age (Count)
system.cpu.icache.tags.ratioOccsTaskId::1024     0.976562                       # Ratio of occupied blocks and all blocks, per task id (Ratio)
system.cpu.icache.tags.tagAccesses           98282497                       # Number of tag accesses (Count)
system.cpu.icache.tags.dataAccesses          98282497                       # Number of data accesses (Count)
system.cpu.icache.tags.power_state.pwrStateResidencyTicks::UNDEFINED 124488952500                       # Cumulative time (in ticks) in various power states (Tick)
system.cpu.iew.idleCycles                           0                       # Number of cycles IEW is idle (Cycle)
system.cpu.iew.squashCycles                    348312                       # Number of cycles IEW is squashing (Cycle)
system.cpu.iew.blockCycles                    2636750                       # Number of cycles IEW is blocking (Cycle)
system.cpu.iew.unblockCycles                  1073627                       # Number of cycles IEW is unblocking (Cycle)
system.cpu.iew.dispatchedInsts              335986456                       # Number of instructions dispatched to IQ (Count)
system.cpu.iew.dispSquashedInsts                51663                       # Number of squashed instructions skipped by dispatch (Count)
system.cpu.iew.dispLoadInsts                 96564259                       # Number of dispatched load instructions (Count)
system.cpu.iew.dispStoreInsts                27720985                       # Number of dispatched store instructions (Count)
system.cpu.iew.dispNonSpecInsts                197003                       # Number of dispatched non-speculative instructions (Count)
system.cpu.iew.iqFullEvents                    120613                       # Number of times the IQ has become full, causing a stall (Count)
system.cpu.iew.lsqFullEvents                   904012                       # Number of times the LSQ has become full, causing a stall (Count)
[...]
system.mem_ctrls.dram.bwRead::cpu.inst       74588466                       # Total read bandwidth from this memory ((Byte/Second))
system.mem_ctrls.dram.bwRead::cpu.data     1420819667                       # Total read bandwidth from this memory ((Byte/Second))
system.mem_ctrls.dram.bwRead::total        1495408133                       # Total read bandwidth from this memory ((Byte/Second))
system.mem_ctrls.dram.bwInstRead::cpu.inst     74588466                       # Instruction read bandwidth from this memory ((Byte/Second))
system.mem_ctrls.dram.bwInstRead::total      74588466                       # Instruction read bandwidth from this memory ((Byte/Second))
system.mem_ctrls.dram.bwWrite::writebacks     31403397                       # Write bandwidth from this memory ((Byte/Second))
system.mem_ctrls.dram.bwWrite::total         31403397                       # Write bandwidth from this memory ((Byte/Second))
system.mem_ctrls.dram.bwTotal::writebacks     31403397                       # Total bandwidth to/from this memory ((Byte/Second))
system.mem_ctrls.dram.bwTotal::cpu.inst      74588466                       # Total bandwidth to/from this memory ((Byte/Second))
system.mem_ctrls.dram.bwTotal::cpu.data    1420819667                       # Total bandwidth to/from this memory ((Byte/Second))
system.mem_ctrls.dram.bwTotal::total       1526811530                       # Total bandwidth to/from this memory ((Byte/Second))
system.mem_ctrls.dram.readBursts              2722678                       # Number of DRAM read bursts (Count)
system.mem_ctrls.dram.writeBursts               20100                       # Number of DRAM write bursts (Count)
system.mem_ctrls.dram.perBankRdBursts::0       323437                       # Per bank write bursts (Count)
system.mem_ctrls.dram.perBankRdBursts::1       421829                       # Per bank write bursts (Count)
system.mem_ctrls.dram.perBankRdBursts::2       421929                       # Per bank write bursts (Count)
system.mem_ctrls.dram.perBankRdBursts::3       421830                       # Per bank write bursts (Count)
system.mem_ctrls.dram.perBankRdBursts::4       421866                       # Per bank write bursts (Count)
system.mem_ctrls.dram.perBankRdBursts::5       422007                       # Per bank write bursts (Count)
system.mem_ctrls.dram.perBankRdBursts::6       271122                       # Per bank write bursts (Count)
system.mem_ctrls.dram.perBankRdBursts::7         2504                       # Per bank write bursts (Count)
system.mem_ctrls.dram.perBankRdBursts::8         2004                       # Per bank write bursts (Count)
system.mem_ctrls.dram.perBankRdBursts::9         1944                       # Per bank write bursts (Count)
system.mem_ctrls.dram.perBankRdBursts::10         2426                       # Per bank write bursts (Count)
system.mem_ctrls.dram.perBankRdBursts::11         1961                       # Per bank write bursts (Count)
system.mem_ctrls.dram.perBankRdBursts::12         2135                       # Per bank write bursts (Count)
system.mem_ctrls.dram.perBankRdBursts::13         1945                       # Per bank write bursts (Count)
system.mem_ctrls.dram.perBankRdBursts::14         1890                       # Per bank write bursts (Count)
system.mem_ctrls.dram.perBankRdBursts::15         1849                       # Per bank write bursts (Count)
system.mem_ctrls.dram.perBankWrBursts::0         1308                       # Per bank write bursts (Count)
system.mem_ctrls.dram.perBankWrBursts::1         1354                       # Per bank write bursts (Count)
system.mem_ctrls.dram.perBankWrBursts::2         1465                       # Per bank write bursts (Count)
system.mem_ctrls.dram.perBankWrBursts::3         1458                       # Per bank write bursts (Count)
system.mem_ctrls.dram.perBankWrBursts::4         1427                       # Per bank write bursts (Count)
system.mem_ctrls.dram.perBankWrBursts::5         1421                       # Per bank write bursts (Count)
system.mem_ctrls.dram.perBankWrBursts::6         1396                       # Per bank write bursts (Count)
system.mem_ctrls.dram.perBankWrBursts::7         1211                       # Per bank write bursts (Count)
system.mem_ctrls.dram.perBankWrBursts::8         1096                       # Per bank write bursts (Count)
system.mem_ctrls.dram.perBankWrBursts::9         1220                       # Per bank write bursts (Count)
system.mem_ctrls.dram.perBankWrBursts::10         1057                       # Per bank write bursts (Count)
system.mem_ctrls.dram.perBankWrBursts::11         1225                       # Per bank write bursts (Count)
system.mem_ctrls.dram.perBankWrBursts::12         1087                       # Per bank write bursts (Count)
system.mem_ctrls.dram.perBankWrBursts::13         1233                       # Per bank write bursts (Count)
system.mem_ctrls.dram.perBankWrBursts::14         1073                       # Per bank write bursts (Count)
system.mem_ctrls.dram.perBankWrBursts::15         1069                       # Per bank write bursts (Count)
system.mem_ctrls.dram.totQLat             11297290250                       # Total ticks spent queuing (Tick)
system.mem_ctrls.dram.totBusLat           13613390000                       # Total ticks spent in databus transfers (Tick)
system.mem_ctrls.dram.totMemAccLat        62347502750                       # Total ticks spent from burst creation until serviced by the DRAM (Tick)
system.mem_ctrls.dram.avgQLat                 4149.33                       # Average queueing delay per DRAM burst ((Tick/Count))
system.mem_ctrls.dram.avgBusLat               5000.00                       # Average bus latency per DRAM burst ((Tick/Count))
system.mem_ctrls.dram.avgMemAccLat           22899.33                       # Average memory access latency per DRAM burst ((Tick/Count))
system.mem_ctrls.dram.readRowHits             2522579                       # Number of row buffer hits during reads (Count)
system.mem_ctrls.dram.writeRowHits              17802                       # Number of row buffer hits during writes (Count)
system.mem_ctrls.dram.readRowHitRate            92.65                       # Row buffer hit rate for reads (Ratio)
system.mem_ctrls.dram.writeRowHitRate           88.57                       # Row buffer hit rate for writes (Ratio)
system.mem_ctrls.dram.bytesPerActivate::samples       202387                       # Bytes accessed per row activation (Byte)
system.mem_ctrls.dram.bytesPerActivate::mean   867.328751                       # Bytes accessed per row activation (Byte)
system.mem_ctrls.dram.bytesPerActivate::gmean   715.388727                       # Bytes accessed per row activation (Byte)
system.mem_ctrls.dram.bytesPerActivate::stdev   322.862753                       # Bytes accessed per row activation (Byte)
system.mem_ctrls.dram.bytesPerActivate::0-127        13463      6.65%      6.65% # Bytes accessed per row activation (Byte)
system.mem_ctrls.dram.bytesPerActivate::128-255        10880      5.38%     12.03% # Bytes accessed per row activation (Byte)
system.mem_ctrls.dram.bytesPerActivate::256-383         4780      2.36%     14.39% # Bytes accessed per row activation (Byte)
system.mem_ctrls.dram.bytesPerActivate::384-511         3036      1.50%     15.89% # Bytes accessed per row activation (Byte)
system.mem_ctrls.dram.bytesPerActivate::512-639         3056      1.51%     17.40% # Bytes accessed per row activation (Byte)
system.mem_ctrls.dram.bytesPerActivate::640-767         2824      1.40%     18.80% # Bytes accessed per row activation (Byte)
system.mem_ctrls.dram.bytesPerActivate::768-895         3200      1.58%     20.38% # Bytes accessed per row activation (Byte)
system.mem_ctrls.dram.bytesPerActivate::896-1023         3945      1.95%     22.33% # Bytes accessed per row activation (Byte)
system.mem_ctrls.dram.bytesPerActivate::1024-1151       157203     77.67%    100.00% # Bytes accessed per row activation (Byte)
system.mem_ctrls.dram.bytesPerActivate::total       202387                       # Bytes accessed per row activation (Byte)
system.mem_ctrls.dram.bytesRead             174251392                       # Total bytes read (Byte)
system.mem_ctrls.dram.bytesWritten            1286400                       # Total bytes written (Byte)
system.mem_ctrls.dram.avgRdBW             1399.733780                       # Average DRAM read bandwidth in MiBytes/s ((Byte/Second))
system.mem_ctrls.dram.avgWrBW               10.333447                       # Average DRAM write bandwidth in MiBytes/s ((Byte/Second))
system.mem_ctrls.dram.peakBW                 12800.00                       # Theoretical peak bandwidth in MiByte/s ((Byte/Second))
system.mem_ctrls.dram.busUtil                   11.02                       # Data bus utilization in percentage (Ratio)
system.mem_ctrls.dram.busUtilRead               10.94                       # Data bus utilization in percentage for reads (Ratio)
system.mem_ctrls.dram.busUtilWrite               0.08                       # Data bus utilization in percentage for writes (Ratio)
system.mem_ctrls.dram.pageHitRate               92.62                       # Row buffer hit rate, read and write combined (Ratio)
system.mem_ctrls.dram.power_state.pwrStateResidencyTicks::UNDEFINED 124488952500                       # Cumulative time (in ticks) in various power states (Tick)
system.mem_ctrls.dram.rank0.actEnergy      1391835900                       # Energy for activate commands per rank (pJ) (Joule)
system.mem_ctrls.dram.rank0.preEnergy       739759350                       # Energy for precharge commands per rank (pJ) (Joule)
system.mem_ctrls.dram.rank0.readEnergy    19324574220                       # Energy for read commands per rank (pJ) (Joule)
system.mem_ctrls.dram.rank0.writeEnergy      57628800                       # Energy for write commands per rank (pJ) (Joule)
system.mem_ctrls.dram.rank0.refreshEnergy 9826864320.000002                       # Energy for refresh commands per rank (pJ) (Joule)
system.mem_ctrls.dram.rank0.actBackEnergy  47885456040                       # Energy for active background per rank (pJ) (Joule)
system.mem_ctrls.dram.rank0.preBackEnergy   7479163200                       # Energy for precharge background per rank (pJ) (Joule)
system.mem_ctrls.dram.rank0.actPowerDownEnergy            0                       # Energy for active power-down per rank (pJ) (Joule)
system.mem_ctrls.dram.rank0.prePowerDownEnergy            0                       # Energy for precharge power-down per rank (pJ) (Joule)
system.mem_ctrls.dram.rank0.selfRefreshEnergy            0                       # Energy for self refresh per rank (pJ) (Joule)
system.mem_ctrls.dram.rank0.totalEnergy   86705281830                       # Total energy per rank (pJ) (Joule)
system.mem_ctrls.dram.rank0.averagePower   696.489769                       # Core power per rank (mW) (Watt)
system.mem_ctrls.dram.rank0.totalIdleTime            0                       # Total Idle time Per DRAM Rank (Tick)
system.mem_ctrls.dram.rank0.pwrStateTime::IDLE  18370443750                       # Time in different power states (Tick)
system.mem_ctrls.dram.rank0.pwrStateTime::REF   4156880000                       # Time in different power states (Tick)
system.mem_ctrls.dram.rank0.pwrStateTime::SREF            0                       # Time in different power states (Tick)
system.mem_ctrls.dram.rank0.pwrStateTime::PRE_PDN            0                       # Time in different power states (Tick)
system.mem_ctrls.dram.rank0.pwrStateTime::ACT 101961628750                       # Time in different power states (Tick)
system.mem_ctrls.dram.rank0.pwrStateTime::ACT_PDN            0                       # Time in different power states (Tick)
system.mem_ctrls.dram.rank1.actEnergy        53271540                       # Energy for activate commands per rank (pJ) (Joule)
system.mem_ctrls.dram.rank1.preEnergy        28299315                       # Energy for precharge commands per rank (pJ) (Joule)
system.mem_ctrls.dram.rank1.readEnergy      115339560                       # Energy for read commands per rank (pJ) (Joule)
system.mem_ctrls.dram.rank1.writeEnergy      47293200                       # Energy for write commands per rank (pJ) (Joule)
system.mem_ctrls.dram.rank1.refreshEnergy 9826864320.000002                       # Energy for refresh commands per rank (pJ) (Joule)
system.mem_ctrls.dram.rank1.actBackEnergy   6475079730                       # Energy for active background per rank (pJ) (Joule)
system.mem_ctrls.dram.rank1.preBackEnergy  42351059040                       # Energy for precharge background per rank (pJ) (Joule)
system.mem_ctrls.dram.rank1.actPowerDownEnergy            0                       # Energy for active power-down per rank (pJ) (Joule)
system.mem_ctrls.dram.rank1.prePowerDownEnergy            0                       # Energy for precharge power-down per rank (pJ) (Joule)
system.mem_ctrls.dram.rank1.selfRefreshEnergy            0                       # Energy for self refresh per rank (pJ) (Joule)
system.mem_ctrls.dram.rank1.totalEnergy   58897206705                       # Total energy per rank (pJ) (Joule)
system.mem_ctrls.dram.rank1.averagePower   473.111915                       # Core power per rank (mW) (Watt)
system.mem_ctrls.dram.rank1.totalIdleTime            0                       # Total Idle time Per DRAM Rank (Tick)
system.mem_ctrls.dram.rank1.pwrStateTime::IDLE 110016163750                       # Time in different power states (Tick)
system.mem_ctrls.dram.rank1.pwrStateTime::REF   4156880000                       # Time in different power states (Tick)
system.mem_ctrls.dram.rank1.pwrStateTime::SREF            0                       # Time in different power states (Tick)
system.mem_ctrls.dram.rank1.pwrStateTime::PRE_PDN            0                       # Time in different power states (Tick)
system.mem_ctrls.dram.rank1.pwrStateTime::ACT  10315908750                       # Time in different power states (Tick)
system.mem_ctrls.dram.rank1.pwrStateTime::ACT_PDN            0                       # Time in different power states (Tick)
system.mem_ctrls.power_state.pwrStateResidencyTicks::UNDEFINED 124488952500                       # Cumulative time (in ticks) in various power states (Tick)
system.membus.transDist::ReadResp             2893759                       # Transaction distribution (Count)
system.membus.transDist::WritebackDirty         61084                       # Transaction distribution (Count)
system.membus.transDist::WritebackClean        144585                       # Transaction distribution (Count)
system.membus.transDist::CleanEvict           2704173                       # Transaction distribution (Count)
system.membus.transDist::ReadExReq              15019                       # Transaction distribution (Count)
system.membus.transDist::ReadExResp             15019                       # Transaction distribution (Count)
system.membus.transDist::ReadCleanReq          145086                       # Transaction distribution (Count)
system.membus.transDist::ReadSharedReq        2748674                       # Transaction distribution (Count)
system.membus.transDist::InvalidateReq           2076                       # Transaction distribution (Count)
system.membus.pktCount_system.cpu.icache.mem_side_port::system.mem_ctrls.port       434756                       # Packet count per connected requestor and responder (Count)
system.membus.pktCount_system.cpu.dcache.mem_side_port::system.mem_ctrls.port      8294719                       # Packet count per connected requestor and responder (Count)
system.membus.pktCount::total                 8729475                       # Packet count per connected requestor and responder (Count)
system.membus.pktSize_system.cpu.icache.mem_side_port::system.mem_ctrls.port     18538880                       # Cumulative packet size per connected requestor and responder (Byte)
system.membus.pktSize_system.cpu.dcache.mem_side_port::system.mem_ctrls.port    180785728                       # Cumulative packet size per connected requestor and responder (Byte)
system.membus.pktSize::total                199324608                       # Cumulative packet size per connected requestor and responder (Byte)
system.membus.snoops                                0                       # Total snoops (Count)
system.membus.snoopTraffic                          0                       # Total snoop traffic (Byte)
system.membus.snoopFanout::samples            2910855                       # Request fanout histogram (Count)
system.membus.snoopFanout::mean              0.000001                       # Request fanout histogram (Count)
system.membus.snoopFanout::stdev             0.000829                       # Request fanout histogram (Count)
system.membus.snoopFanout::underflows               0      0.00%      0.00% # Request fanout histogram (Count)
system.membus.snoopFanout::0                  2910853    100.00%    100.00% # Request fanout histogram (Count)
system.membus.snoopFanout::1                        2      0.00%    100.00% # Request fanout histogram (Count)
system.membus.snoopFanout::2                        0      0.00%    100.00% # Request fanout histogram (Count)
system.membus.snoopFanout::overflows                0      0.00%    100.00% # Request fanout histogram (Count)
system.membus.snoopFanout::min_value                0                       # Request fanout histogram (Count)
system.membus.snoopFanout::max_value                1                       # Request fanout histogram (Count)
system.membus.snoopFanout::total              2910855                       # Request fanout histogram (Count)
system.membus.power_state.pwrStateResidencyTicks::UNDEFINED 124488952500                       # Cumulative time (in ticks) in various power states (Tick)
system.membus.reqLayer0.occupancy          6767738000                       # Layer occupancy (ticks) (Tick)
system.membus.reqLayer0.utilization               0.1                       # Layer utilization (Ratio)
system.membus.respLayer1.occupancy          725980250                       # Layer occupancy (ticks) (Tick)
system.membus.respLayer1.utilization              0.0                       # Layer utilization (Ratio)
system.membus.respLayer2.occupancy        14504848500                       # Layer occupancy (ticks) (Tick)
system.membus.respLayer2.utilization              0.1                       # Layer utilization (Ratio)
system.membus.snoop_filter.totRequests        5820699                       # Total number of requests made to the snoop filter. (Count)
system.membus.snoop_filter.hitSingleRequests      2909845                       # Number of requests hitting in the snoop filter with a single holder of the requested data. (Count)
system.membus.snoop_filter.hitMultiRequests            1                       # Number of requests hitting in the snoop filter with multiple (>1) holders of the requested data. (Count)
system.membus.snoop_filter.totSnoops                0                       # Total number of snoops made to the snoop filter. (Count)
system.membus.snoop_filter.hitSingleSnoops            0                       # Number of snoops hitting in the snoop filter with a single holder of the requested data. (Count)
system.membus.snoop_filter.hitMultiSnoops            0                       # Number of snoops hitting in the snoop filter with multiple (>1) holders of the requested data. (Count)
system.voltage_domain.voltage                       1                       # Voltage in Volts (Volt)
system.workload.inst.arm                            0                       # number of arm instructions executed (Count)
system.workload.inst.quiesce                        0                       # number of quiesce instructions executed (Count)

---------- End Simulation Statistics   ----------
