
---------- Begin Simulation Statistics ----------
simSeconds                                   0.033393                       # Number of seconds simulated (Second)
simTicks                                  33393118500                       # Number of ticks simulated (Tick)
finalTick                                 33393118500                       # Number of ticks from beginning of simulation (restored from checkpoints and never reset) (Tick)
simFreq                                  1000000000000                       # The number of ticks per simulated second ((Tick/Second))
hostSeconds                                    292.22                       # Real time elapsed on the host (Second)
hostTickRate                                114274259                       # The number of ticks simulated per host second (ticks/s) ((Tick/Second))
hostMemory                                     680488                       # Number of bytes of host memory used (Byte)
simInsts                                    136107517                       # Number of instructions simulated (Count)
simOps                                      146310873                       # Number of ops (including micro ops) simulated (Count)
hostInstRate                                   465772                       # Simulator instruction rate (inst/s) ((Count/Second))
hostOpRate                                     500689                       # Simulator op (including micro ops) rate (op/s) ((Count/Second))
system.clk_domain.clock                          1000                       # Clock period in ticks (Tick)
system.cpu.numCycles                         66786238                       # Number of cpu cycles simulated (Cycle)
system.cpu.numWorkItemsStarted                      0                       # Number of work items this cpu started (Count)
system.cpu.numWorkItemsCompleted                    0                       # Number of work items this cpu completed (Count)
system.cpu.instsAdded                       155070606                       # Number of instructions added to the IQ (excludes non-spec) (Count)
system.cpu.nonSpecInstsAdded                   197004                       # Number of non-speculative instructions added to the IQ (Count)
system.cpu.instsIssued                      154628602                       # Number of instructions issued (Count)
system.cpu.squashedInstsIssued                 283668                       # Number of squashed instructions issued (Count)
system.cpu.squashedInstsExamined              8956736                       # Number of squashed instructions iterated over during squash; mainly for profiling (Count)
system.cpu.squashedOperandsExamined           6740928                       # Number of squashed operands that are examined and possibly removed from graph (Count)
system.cpu.squashedNonSpecRemoved                 190                       # Number of squashed non-spec instructions that were removed (Count)
system.cpu.numIssuedDist::samples            64936942                       # Number of insts issued each cycle (Count)
system.cpu.numIssuedDist::mean               2.381212                       # Number of insts issued each cycle (Count)
system.cpu.numIssuedDist::stdev              2.088361                       # Number of insts issued each cycle (Count)
system.cpu.numIssuedDist::underflows                0      0.00%      0.00% # Number of insts issued each cycle (Count)
system.cpu.numIssuedDist::0                  17771405     27.37%     27.37% # Number of insts issued each cycle (Count)
system.cpu.numIssuedDist::1                   6854786     10.56%     37.92% # Number of insts issued each cycle (Count)
system.cpu.numIssuedDist::2                  11545440     17.78%     55.70% # Number of insts issued each cycle (Count)
system.cpu.numIssuedDist::3                  10942886     16.85%     72.55% # Number of insts issued each cycle (Count)
system.cpu.numIssuedDist::4                   7610721     11.72%     84.27% # Number of insts issued each cycle (Count)
system.cpu.numIssuedDist::5                   3283846      5.06%     89.33% # Number of insts issued each cycle (Count)
system.cpu.numIssuedDist::6                   4548638      7.00%     96.34% # Number of insts issued each cycle (Count)
system.cpu.numIssuedDist::7                   1333424      2.05%     98.39% # Number of insts issued each cycle (Count)
system.cpu.numIssuedDist::8                   1045796      1.61%    100.00% # Number of insts issued each cycle (Count)
system.cpu.numIssuedDist::overflows                 0      0.00%    100.00% # Number of insts issued each cycle (Count)
system.cpu.numIssuedDist::min_value                 0                       # Number of insts issued each cycle (Count)
system.cpu.numIssuedDist::max_value                 8                       # Number of insts issued each cycle (Count)
system.cpu.numIssuedDist::total              64936942                       # Number of insts issued each cycle (Count)
system.cpu.statFuBusy::No_OpClass                   0      0.00%      0.00% # attempts to use FU when none available (Count)
system.cpu.statFuBusy::IntAlu                  389456     13.69%     13.69% # attempts to use FU when none available (Count)
system.cpu.statFuBusy::IntMult                 193881      6.81%     20.50% # attempts to use FU when none available (Count)
system.cpu.statFuBusy::IntDiv                       0      0.00%     20.50% # attempts to use FU when none available (Count)
system.cpu.statFuBusy::FloatAdd                     0      0.00%     20.50% # attempts to use FU when none available (Count)
system.cpu.statFuBusy::FloatCmp                     0      0.00%     20.50% # attempts to use FU when none available (Count)
system.cpu.statFuBusy::FloatCvt                     0      0.00%     20.50% # attempts to use FU when none available (Count)
system.cpu.statFuBusy::FloatMult                    0      0.00%     20.50% # attempts to use FU when none available (Count)
system.cpu.statFuBusy::FloatMultAcc                 0      0.00%     20.50% # attempts to use FU when none available (Count)
system.cpu.statFuBusy::FloatDiv                     0      0.00%     20.50% # attempts to use FU when none available (Count)
system.cpu.statFuBusy::FloatMisc                    0      0.00%     20.50% # attempts to use FU when none available (Count)
system.cpu.statFuBusy::FloatSqrt                    0      0.00%     20.50% # attempts to use FU when none available (Count)
system.cpu.statFuBusy::SimdAdd                      0      0.00%     20.50% # attempts to use FU when none available (Count)
system.cpu.statFuBusy::SimdAddAcc                   0      0.00%     20.50% # attempts to use FU when none available (Count)
system.cpu.statFuBusy::SimdAlu                      1      0.00%     20.50% # attempts to use FU when none available (Count)
system.cpu.statFuBusy::SimdCmp                     10      0.00%     20.50% # attempts to use FU when none available (Count)
system.cpu.statFuBusy::SimdCvt                      0      0.00%     20.50% # attempts to use FU when none available (Count)
system.cpu.statFuBusy::SimdMisc                     0      0.00%     20.50% # attempts to use FU when none available (Count)
system.cpu.statFuBusy::SimdMult                     0      0.00%     20.50% # attempts to use FU when none available (Count)
system.cpu.statFuBusy::SimdMultAcc                  0      0.00%     20.50% # attempts to use FU when none available (Count)
system.cpu.statFuBusy::SimdShift                    0      0.00%     20.50% # attempts to use FU when none available (Count)
system.cpu.statFuBusy::SimdShiftAcc                 0      0.00%     20.50% # attempts to use FU when none available (Count)
system.cpu.statFuBusy::SimdDiv                      0      0.00%     20.50% # attempts to use FU when none available (Count)
system.cpu.statFuBusy::SimdSqrt                     0      0.00%     20.50% # attempts to use FU when none available (Count)
system.cpu.statFuBusy::SimdFloatAdd                 0      0.00%     20.50% # attempts to use FU when none available (Count)
system.cpu.statFuBusy::SimdFloatAlu                 0      0.00%     20.50% # attempts to use FU when none available (Count)
system.cpu.statFuBusy::SimdFloatCmp                 0      0.00%     20.50% # attempts to use FU when none available (Count)
system.cpu.statFuBusy::SimdFloatCvt                 0      0.00%     20.50% # attempts to use FU when none available (Count)
system.cpu.statFuBusy::SimdFloatDiv                 0      0.00%     20.50% # attempts to use FU when none available (Count)
system.cpu.statFuBusy::SimdFloatMisc                0      0.00%     20.50% # attempts to use FU when none available (Count)
system.cpu.statFuBusy::SimdFloatMult                0      0.00%     20.50% # attempts to use FU when none available (Count)
system.cpu.statFuBusy::SimdFloatMultAcc             0      0.00%     20.50% # attempts to use FU when none available (Count)
system.cpu.statFuBusy::SimdFloatSqrt                0      0.00%     20.50% # attempts to use FU when none available (Count)
system.cpu.statFuBusy::SimdReduceAdd                0      0.00%     20.50% # attempts to use FU when none available (Count)
system.cpu.statFuBusy::SimdReduceAlu                0      0.00%     20.50% # attempts to use FU when none available (Count)
system.cpu.statFuBusy::SimdReduceCmp                0      0.00%     20.50% # attempts to use FU when none available (Count)
system.cpu.statFuBusy::SimdFloatReduceAdd            0      0.00%     20.50% # attempts to use FU when none available (Count)
system.cpu.statFuBusy::SimdFloatReduceCmp            0      0.00%     20.50% # attempts to use FU when none available (Count)
system.cpu.statFuBusy::SimdAes                      0      0.00%     20.50% # attempts to use FU when none available (Count)
system.cpu.statFuBusy::SimdAesMix                   0      0.00%     20.50% # attempts to use FU when none available (Count)
system.cpu.statFuBusy::SimdSha1Hash                 0      0.00%     20.50% # attempts to use FU when none available (Count)
system.cpu.statFuBusy::SimdSha1Hash2                0      0.00%     20.50% # attempts to use FU when none available (Count)
system.cpu.statFuBusy::SimdSha256Hash               0      0.00%     20.50% # attempts to use FU when none available (Count)
system.cpu.statFuBusy::SimdSha256Hash2              0      0.00%     20.50% # attempts to use FU when none available (Count)
system.cpu.statFuBusy::SimdShaSigma2                0      0.00%     20.50% # attempts to use FU when none available (Count)
system.cpu.statFuBusy::SimdShaSigma3                0      0.00%     20.50% # attempts to use FU when none available (Count)
system.cpu.statFuBusy::SimdPredAlu                  0      0.00%     20.50% # attempts to use FU when none available (Count)
system.cpu.statFuBusy::MemRead                1148990     40.38%     60.89% # attempts to use FU when none available (Count)
system.cpu.statFuBusy::MemWrite               1112915     39.11%    100.00% # attempts to use FU when none available (Count)
system.cpu.statFuBusy::FloatMemRead                 0      0.00%    100.00% # attempts to use FU when none available (Count)
system.cpu.statFuBusy::FloatMemWrite                0      0.00%    100.00% # attempts to use FU when none available (Count)
system.cpu.statFuBusy::IprAccess                    0      0.00%    100.00% # attempts to use FU when none available (Count)
system.cpu.statFuBusy::InstPrefetch                 0      0.00%    100.00% # attempts to use FU when none available (Count)
system.cpu.statIssuedInstType_0::No_OpClass       131156      0.08%      0.08% # Number of instructions issued per FU type, per thread (Count)
system.cpu.statIssuedInstType_0::IntAlu      97893615     63.31%     63.39% # Number of instructions issued per FU type, per thread (Count)
system.cpu.statIssuedInstType_0::IntMult      1243704      0.80%     64.20% # Number of instructions issued per FU type, per thread (Count)
system.cpu.statIssuedInstType_0::IntDiv        234481      0.15%     64.35% # Number of instructions issued per FU type, per thread (Count)
system.cpu.statIssuedInstType_0::FloatAdd        24277      0.02%     64.37% # Number of instructions issued per FU type, per thread (Count)
system.cpu.statIssuedInstType_0::FloatCmp        68903      0.04%     64.41% # Number of instructions issued per FU type, per thread (Count)
system.cpu.statIssuedInstType_0::FloatCvt            0      0.00%     64.41% # Number of instructions issued per FU type, per thread (Count)
system.cpu.statIssuedInstType_0::FloatMult        22636      0.01%     64.42% # Number of instructions issued per FU type, per thread (Count)
system.cpu.statIssuedInstType_0::FloatMultAcc            0      0.00%     64.42% # Number of instructions issued per FU type, per thread (Count)
system.cpu.statIssuedInstType_0::FloatDiv            0      0.00%     64.42% # Number of instructions issued per FU type, per thread (Count)
system.cpu.statIssuedInstType_0::FloatMisc        62225      0.04%     64.46% # Number of instructions issued per FU type, per thread (Count)
system.cpu.statIssuedInstType_0::FloatSqrt            0      0.00%     64.46% # Number of instructions issued per FU type, per thread (Count)
system.cpu.statIssuedInstType_0::SimdAdd        65597      0.04%     64.51% # Number of instructions issued per FU type, per thread (Count)
system.cpu.statIssuedInstType_0::SimdAddAcc            0      0.00%     64.51% # Number of instructions issued per FU type, per thread (Count)
system.cpu.statIssuedInstType_0::SimdAlu       131161      0.08%     64.59% # Number of instructions issued per FU type, per thread (Count)
system.cpu.statIssuedInstType_0::SimdCmp       131152      0.08%     64.68% # Number of instructions issued per FU type, per thread (Count)
system.cpu.statIssuedInstType_0::SimdCvt            0      0.00%     64.68% # Number of instructions issued per FU type, per thread (Count)
system.cpu.statIssuedInstType_0::SimdMisc       127850      0.08%     64.76% # Number of instructions issued per FU type, per thread (Count)
system.cpu.statIssuedInstType_0::SimdMult            0      0.00%     64.76% # Number of instructions issued per FU type, per thread (Count)
system.cpu.statIssuedInstType_0::SimdMultAcc            0      0.00%     64.76% # Number of instructions issued per FU type, per thread (Count)
system.cpu.statIssuedInstType_0::SimdShift            0      0.00%     64.76% # Number of instructions issued per FU type, per thread (Count)
system.cpu.statIssuedInstType_0::SimdShiftAcc            0      0.00%     64.76% # Number of instructions issued per FU type, per thread (Count)
system.cpu.statIssuedInstType_0::SimdDiv            0      0.00%     64.76% # Number of instructions issued per FU type, per thread (Count)
system.cpu.statIssuedInstType_0::SimdSqrt            0      0.00%     64.76% # Number of instructions issued per FU type, per thread (Count)
system.cpu.statIssuedInstType_0::SimdFloatAdd            0      0.00%     64.76% # Number of instructions issued per FU type, per thread (Count)
system.cpu.statIssuedInstType_0::SimdFloatAlu            0      0.00%     64.76% # Number of instructions issued per FU type, per thread (Count)
system.cpu.statIssuedInstType_0::SimdFloatCmp            0      0.00%     64.76% # Number of instructions issued per FU type, per thread (Count)
system.cpu.statIssuedInstType_0::SimdFloatCvt            0      0.00%     64.76% # Number of instructions issued per FU type, per thread (Count)
system.cpu.statIssuedInstType_0::SimdFloatDiv            0      0.00%     64.76% # Number of instructions issued per FU type, per thread (Count)
system.cpu.statIssuedInstType_0::SimdFloatMisc            0      0.00%     64.76% # Number of instructions issued per FU type, per thread (Count)
system.cpu.statIssuedInstType_0::SimdFloatMult            0      0.00%     64.76% # Number of instructions issued per FU type, per thread (Count)
system.cpu.statIssuedInstType_0::SimdFloatMultAcc            0      0.00%     64.76% # Number of instructions issued per FU type, per thread (Count)
system.cpu.statIssuedInstType_0::SimdFloatSqrt            0      0.00%     64.76% # Number of instructions issued per FU type, per thread (Count)
system.cpu.statIssuedInstType_0::SimdReduceAdd            0      0.00%     64.76% # Number of instructions issued per FU type, per thread (Count)
system.cpu.statIssuedInstType_0::SimdReduceAlu            0      0.00%     64.76% # Number of instructions issued per FU type, per thread (Count)
system.cpu.statIssuedInstType_0::SimdReduceCmp            0      0.00%     64.76% # Number of instructions issued per FU type, per thread (Count)
system.cpu.statIssuedInstType_0::SimdFloatReduceAdd            0      0.00%     64.76% # Number of instructions issued per FU type, per thread (Count)
system.cpu.statIssuedInstType_0::SimdFloatReduceCmp            0      0.00%     64.76% # Number of instructions issued per FU type, per thread (Count)
system.cpu.statIssuedInstType_0::SimdAes            0      0.00%     64.76% # Number of instructions issued per FU type, per thread (Count)
system.cpu.statIssuedInstType_0::SimdAesMix            0      0.00%     64.76% # Number of instructions issued per FU type, per thread (Count)
system.cpu.statIssuedInstType_0::SimdSha1Hash            0      0.00%     64.76% # Number of instructions issued per FU type, per thread (Count)
system.cpu.statIssuedInstType_0::SimdSha1Hash2            0      0.00%     64.76% # Number of instructions issued per FU type, per thread (Count)
system.cpu.statIssuedInstType_0::SimdSha256Hash            0      0.00%     64.76% # Number of instructions issued per FU type, per thread (Count)
system.cpu.statIssuedInstType_0::SimdSha256Hash2            0      0.00%     64.76% # Number of instructions issued per FU type, per thread (Count)
system.cpu.statIssuedInstType_0::SimdShaSigma2            0      0.00%     64.76% # Number of instructions issued per FU type, per thread (Count)
system.cpu.statIssuedInstType_0::SimdShaSigma3            0      0.00%     64.76% # Number of instructions issued per FU type, per thread (Count)
system.cpu.statIssuedInstType_0::SimdPredAlu            0      0.00%     64.76% # Number of instructions issued per FU type, per thread (Count)
system.cpu.statIssuedInstType_0::MemRead     37783986     24.44%     89.19% # Number of instructions issued per FU type, per thread (Count)
system.cpu.statIssuedInstType_0::MemWrite     16707859     10.81%    100.00% # Number of instructions issued per FU type, per thread (Count)
system.cpu.statIssuedInstType_0::FloatMemRead            0      0.00%    100.00% # Number of instructions issued per FU type, per thread (Count)
system.cpu.statIssuedInstType_0::FloatMemWrite            0      0.00%    100.00% # Number of instructions issued per FU type, per thread (Count)
system.cpu.statIssuedInstType_0::IprAccess            0      0.00%    100.00% # Number of instructions issued per FU type, per thread (Count)
system.cpu.statIssuedInstType_0::InstPrefetch            0      0.00%    100.00% # Number of instructions issued per FU type, per thread (Count)
system.cpu.statIssuedInstType_0::total      154628602                       # Number of instructions issued per FU type, per thread (Count)
system.cpu.issueRate                         2.315276                       # Inst issue rate ((Count/Cycle))
system.cpu.fuBusy                             2845253                       # FU busy when requested (Count)
system.cpu.fuBusyRate                        0.018401                       # FU busy rate (busy events/executed inst) ((Count/Count))
system.cpu.intInstQueueReads                372133054                       # Number of integer instruction queue reads (Count)
system.cpu.intInstQueueWrites               160878265                       # Number of integer instruction queue writes (Count)
system.cpu.intInstQueueWakeupAccesses       149557833                       # Number of integer instruction queue wakeup accesses (Count)
system.cpu.fpInstQueueReads                         0                       # Number of floating instruction queue reads (Count)
system.cpu.fpInstQueueWrites                        0                       # Number of floating instruction queue writes (Count)
system.cpu.fpInstQueueWakeupAccesses                0                       # Number of floating instruction queue wakeup accesses (Count)
system.cpu.vecInstQueueReads                  5190013                       # Number of vector instruction queue reads (Count)
system.cpu.vecInstQueueWrites                 3406324                       # Number of vector instruction queue writes (Count)
system.cpu.vecInstQueueWakeupAccesses         2099518                       # Number of vector instruction queue wakeup accesses (Count)
system.cpu.intAluAccesses                   154689528                       # Number of integer alu accesses (Count)
system.cpu.fpAluAccesses                            0                       # Number of floating point alu accesses (Count)
system.cpu.vecAluAccesses                     2653171                       # Number of vector alu accesses (Count)
system.cpu.numInsts                         153846283                       # Number of executed instructions (Count)
system.cpu.numLoadInsts                      37631901                       # Number of load instructions executed (Count)
system.cpu.numSquashedInsts                    782319                       # Number of squashed instructions skipped in execute (Count)
system.cpu.numSwp                                   0                       # Number of swp insts executed (Count)
system.cpu.numNop                              119827                       # Number of nop insts executed (Count)
system.cpu.numRefs                           54070518                       # Number of memory reference insts executed (Count)
system.cpu.numBranches                       24692337                       # Number of branches executed (Count)
system.cpu.numStoreInsts                     16438617                       # Number of stores executed (Count)
system.cpu.numRate                           2.303563                       # Inst execution rate ((Count/Cycle))
system.cpu.timesIdled                           97896                       # Number of times that the entire CPU went into an idle state and unscheduled itself (Count)
system.cpu.idleCycles                         1849296                       # Total number of cycles that the CPU has spent unscheduled due to idling (Cycle)
system.cpu.committedInsts                   136107517                       # Number of Instructions Simulated (Count)
system.cpu.committedOps                     146310873                       # Number of Ops (including micro ops) Simulated (Count)
system.cpu.cpi                               0.490687                       # CPI: Cycles Per Instruction ((Cycle/Count))
system.cpu.totalCpi                          0.490687                       # CPI: Total CPI of All Threads ((Cycle/Count))
system.cpu.ipc                               2.037958                       # IPC: Instructions Per Cycle ((Count/Cycle))
system.cpu.totalIpc                          2.037958                       # IPC: Total IPC of All Threads ((Count/Cycle))
system.cpu.intRegfileReads                  178371699                       # Number of integer regfile reads (Count)
system.cpu.intRegfileWrites                 113731088                       # Number of integer regfile writes (Count)
system.cpu.vecRegfileReads                    2195791                       # number of vector regfile reads (Count)
system.cpu.vecRegfileWrites                    800740                       # number of vector regfile writes (Count)
system.cpu.ccRegfileReads                    46069275                       # number of cc regfile reads (Count)
system.cpu.ccRegfileWrites                   45797873                       # number of cc regfile writes (Count)
system.cpu.miscRegfileReads                 297209768                       # number of misc regfile reads (Count)
system.cpu.miscRegfileWrites                   323955                       # number of misc regfile writes (Count)
system.cpu.MemDepUnit__0.insertedLoads       36248813                       # Number of loads inserted to the mem dependence unit. (Count)
system.cpu.MemDepUnit__0.insertedStores      17520626                       # Number of stores inserted to the mem dependence unit. (Count)
system.cpu.MemDepUnit__0.conflictingLoads      8769222                       # Number of conflicting loads. (Count)
system.cpu.MemDepUnit__0.conflictingStores      1840156                       # Number of conflicting stores. (Count)
system.cpu.MemDepUnit__1.insertedLoads              0                       # Number of loads inserted to the mem dependence unit. (Count)
system.cpu.MemDepUnit__1.insertedStores             0                       # Number of stores inserted to the mem dependence unit. (Count)
system.cpu.MemDepUnit__1.conflictingLoads            0                       # Number of conflicting loads. (Count)
system.cpu.MemDepUnit__1.conflictingStores            0                       # Number of conflicting stores. (Count)
system.cpu.MemDepUnit__2.insertedLoads              0                       # Number of loads inserted to the mem dependence unit. (Count)
system.cpu.MemDepUnit__2.insertedStores             0                       # Number of stores inserted to the mem dependence unit. (Count)
system.cpu.MemDepUnit__2.conflictingLoads            0                       # Number of conflicting loads. (Count)
system.cpu.MemDepUnit__2.conflictingStores            0                       # Number of conflicting stores. (Count)
system.cpu.MemDepUnit__3.insertedLoads              0                       # Number of loads inserted to the mem dependence unit. (Count)
system.cpu.MemDepUnit__3.insertedStores             0                       # Number of stores inserted to the mem dependence unit. (Count)
system.cpu.MemDepUnit__3.conflictingLoads            0                       # Number of conflicting loads. (Count)
system.cpu.MemDepUnit__3.conflictingStores            0                       # Number of conflicting stores. (Count)
system.cpu.branchPred.lookups                25984205                       # Number of BP lookups (Count)
system.cpu.branchPred.condPredicted          18667807                       # Number of conditional branches predicted (Count)
system.cpu.branchPred.condIncorrect            220641                       # Number of conditional branches incorrect (Count)
system.cpu.branchPred.BTBLookups             14233006                       # Number of BTB lookups (Count)
system.cpu.branchPred.BTBHits                14183998                       # Number of BTB hits (Count)
system.cpu.branchPred.BTBHitRatio            0.996557                       # BTB Hit Ratio (Ratio)
system.cpu.branchPred.RASUsed                 1228191                       # Number of times the RAS was used to get a target. (Count)
system.cpu.branchPred.RASIncorrect                 39                       # Number of incorrect RAS predictions. (Count)
system.cpu.branchPred.indirectLookups          246645                       # Number of indirect predictor lookups. (Count)
system.cpu.branchPred.indirectHits             241528                       # Number of indirect target hits. (Count)
system.cpu.branchPred.indirectMisses             5117                       # Number of indirect misses. (Count)
system.cpu.branchPred.indirectMispredicted          212                       # Number of mispredicted indirect branches. (Count)
system.cpu.commit.commitSquashedInsts         8967247                       # The number of squashed insts skipped by commit (Count)
system.cpu.commit.commitNonSpecStalls          196814                       # The number of times commit has been forced to stall to communicate backwards (Count)
system.cpu.commit.branchMispredicts            207235                       # The number of times a branch was mispredicted (Count)
system.cpu.commit.numCommittedDist::samples     63682941                       # Number of insts commited each cycle (Count)
system.cpu.commit.numCommittedDist::mean     2.299207                       # Number of insts commited each cycle (Count)
system.cpu.commit.numCommittedDist::stdev     2.926180                       # Number of insts commited each cycle (Count)
system.cpu.commit.numCommittedDist::underflows            0      0.00%      0.00% # Number of insts commited each cycle (Count)
system.cpu.commit.numCommittedDist::0        26363992     41.40%     41.40% # Number of insts commited each cycle (Count)
system.cpu.commit.numCommittedDist::1        13167259     20.68%     62.08% # Number of insts commited each cycle (Count)
system.cpu.commit.numCommittedDist::2         4061458      6.38%     68.45% # Number of insts commited each cycle (Count)
system.cpu.commit.numCommittedDist::3         2343825      3.68%     72.13% # Number of insts commited each cycle (Count)
system.cpu.commit.numCommittedDist::4         3556515      5.58%     77.72% # Number of insts commited each cycle (Count)
system.cpu.commit.numCommittedDist::5          804086      1.26%     78.98% # Number of insts commited each cycle (Count)
system.cpu.commit.numCommittedDist::6         3123666      4.91%     83.89% # Number of insts commited each cycle (Count)
system.cpu.commit.numCommittedDist::7          987018      1.55%     85.44% # Number of insts commited each cycle (Count)
system.cpu.commit.numCommittedDist::8         9275122     14.56%    100.00% # Number of insts commited each cycle (Count)
system.cpu.commit.numCommittedDist::overflows            0      0.00%    100.00% # Number of insts commited each cycle (Count)
system.cpu.commit.numCommittedDist::min_value            0                       # Number of insts commited each cycle (Count)
system.cpu.commit.numCommittedDist::max_value            8                       # Number of insts commited each cycle (Count)
system.cpu.commit.numCommittedDist::total     63682941                       # Number of insts commited each cycle (Count)
system.cpu.commit.instsCommitted            136216882                       # Number of instructions committed (Count)
system.cpu.commit.opsCommitted              146420238                       # Number of ops (including micro ops) committed (Count)
system.cpu.commit.memRefs                    50187374                       # Number of memory references committed (Count)
system.cpu.commit.loads                      34897950                       # Number of loads committed (Count)
system.cpu.commit.amos                          98358                       # Number of atomic instructions committed (Count)
system.cpu.commit.membars                       98368                       # Number of memory barriers committed (Count)
system.cpu.commit.branches                   24084550                       # Number of branches committed (Count)
system.cpu.commit.vectorInstructions          1731886                       # Number of committed Vector instructions. (Count)
system.cpu.commit.floating                          0                       # Number of committed floating point instructions. (Count)
system.cpu.commit.integer                   128407629                       # Number of committed integer instructions. (Count)
system.cpu.commit.functionCalls               1144535                       # Number of function calls committed. (Count)
system.cpu.commit.committedInstType_0::No_OpClass       131142      0.09%      0.09% # Class of committed instruction (Count)
system.cpu.commit.committedInstType_0::IntAlu     93998788     64.20%     64.29% # Class of committed instruction (Count)
system.cpu.commit.committedInstType_0::IntMult      1243296      0.85%     65.14% # Class of committed instruction (Count)
system.cpu.commit.committedInstType_0::IntDiv       234270      0.16%     65.30% # Class of committed instruction (Count)
system.cpu.commit.committedInstType_0::FloatAdd        24277      0.02%     65.31% # Class of committed instruction (Count)
system.cpu.commit.committedInstType_0::FloatCmp        65536      0.04%     65.36% # Class of committed instruction (Count)
system.cpu.commit.committedInstType_0::FloatCvt            0      0.00%     65.36% # Class of committed instruction (Count)
system.cpu.commit.committedInstType_0::FloatMult        21001      0.01%     65.37% # Class of committed instruction (Count)
system.cpu.commit.committedInstType_0::FloatMultAcc            0      0.00%     65.37% # Class of committed instruction (Count)
system.cpu.commit.committedInstType_0::FloatDiv            0      0.00%     65.37% # Class of committed instruction (Count)
system.cpu.commit.committedInstType_0::FloatMisc        58980      0.04%     65.41% # Class of committed instruction (Count)
system.cpu.commit.committedInstType_0::FloatSqrt            0      0.00%     65.41% # Class of committed instruction (Count)
system.cpu.commit.committedInstType_0::SimdAdd        65560      0.04%     65.46% # Class of committed instruction (Count)
system.cpu.commit.committedInstType_0::SimdAddAcc            0      0.00%     65.46% # Class of committed instruction (Count)
system.cpu.commit.committedInstType_0::SimdAlu       131100      0.09%     65.55% # Class of committed instruction (Count)
system.cpu.commit.committedInstType_0::SimdCmp       131096      0.09%     65.64% # Class of committed instruction (Count)
system.cpu.commit.committedInstType_0::SimdCvt            0      0.00%     65.64% # Class of committed instruction (Count)
system.cpu.commit.committedInstType_0::SimdMisc       127818      0.09%     65.72% # Class of committed instruction (Count)
system.cpu.commit.committedInstType_0::SimdMult            0      0.00%     65.72% # Class of committed instruction (Count)
system.cpu.commit.committedInstType_0::SimdMultAcc            0      0.00%     65.72% # Class of committed instruction (Count)
system.cpu.commit.committedInstType_0::SimdShift            0      0.00%     65.72% # Class of committed instruction (Count)
system.cpu.commit.committedInstType_0::SimdShiftAcc            0      0.00%     65.72% # Class of committed instruction (Count)
system.cpu.commit.committedInstType_0::SimdDiv            0      0.00%     65.72% # Class of committed instruction (Count)
system.cpu.commit.committedInstType_0::SimdSqrt            0      0.00%     65.72% # Class of committed instruction (Count)
system.cpu.commit.committedInstType_0::SimdFloatAdd            0      0.00%     65.72% # Class of committed instruction (Count)
system.cpu.commit.committedInstType_0::SimdFloatAlu            0      0.00%     65.72% # Class of committed instruction (Count)
system.cpu.commit.committedInstType_0::SimdFloatCmp            0      0.00%     65.72% # Class of committed instruction (Count)
system.cpu.commit.committedInstType_0::SimdFloatCvt            0      0.00%     65.72% # Class of committed instruction (Count)
system.cpu.commit.committedInstType_0::SimdFloatDiv            0      0.00%     65.72% # Class of committed instruction (Count)
system.cpu.commit.committedInstType_0::SimdFloatMisc            0      0.00%     65.72% # Class of committed instruction (Count)
system.cpu.commit.committedInstType_0::SimdFloatMult            0      0.00%     65.72% # Class of committed instruction (Count)
system.cpu.commit.committedInstType_0::SimdFloatMultAcc            0      0.00%     65.72% # Class of committed instruction (Count)
system.cpu.commit.committedInstType_0::SimdFloatSqrt            0      0.00%     65.72% # Class of committed instruction (Count)
system.cpu.commit.committedInstType_0::SimdReduceAdd            0      0.00%     65.72% # Class of committed instruction (Count)
system.cpu.commit.committedInstType_0::SimdReduceAlu            0      0.00%     65.72% # Class of committed instruction (Count)
system.cpu.commit.committedInstType_0::SimdReduceCmp            0      0.00%     65.72% # Class of committed instruction (Count)
system.cpu.commit.committedInstType_0::SimdFloatReduceAdd            0      0.00%     65.72% # Class of committed instruction (Count)
system.cpu.commit.committedInstType_0::SimdFloatReduceCmp            0      0.00%     65.72% # Class of committed instruction (Count)
system.cpu.commit.committedInstType_0::SimdAes            0      0.00%     65.72% # Class of committed instruction (Count)
system.cpu.commit.committedInstType_0::SimdAesMix            0      0.00%     65.72% # Class of committed instruction (Count)
system.cpu.commit.committedInstType_0::SimdSha1Hash            0      0.00%     65.72% # Class of committed instruction (Count)
system.cpu.commit.committedInstType_0::SimdSha1Hash2            0      0.00%     65.72% # Class of committed instruction (Count)
system.cpu.commit.committedInstType_0::SimdSha256Hash            0      0.00%     65.72% # Class of committed instruction (Count)
system.cpu.commit.committedInstType_0::SimdSha256Hash2            0      0.00%     65.72% # Class of committed instruction (Count)
system.cpu.commit.committedInstType_0::SimdShaSigma2            0      0.00%     65.72% # Class of committed instruction (Count)
system.cpu.commit.committedInstType_0::SimdShaSigma3            0      0.00%     65.72% # Class of committed instruction (Count)
system.cpu.commit.committedInstType_0::SimdPredAlu            0      0.00%     65.72% # Class of committed instruction (Count)
system.cpu.commit.committedInstType_0::MemRead     34897950     23.83%     89.56% # Class of committed instruction (Count)
system.cpu.commit.committedInstType_0::MemWrite     15289424     10.44%    100.00% # Class of committed instruction (Count)
system.cpu.commit.committedInstType_0::FloatMemRead            0      0.00%    100.00% # Class of committed instruction (Count)
system.cpu.commit.committedInstType_0::FloatMemWrite            0      0.00%    100.00% # Class of committed instruction (Count)
system.cpu.commit.committedInstType_0::IprAccess            0      0.00%    100.00% # Class of committed instruction (Count)
system.cpu.commit.committedInstType_0::InstPrefetch            0      0.00%    100.00% # Class of committed instruction (Count)
system.cpu.commit.committedInstType_0::total    146420238                       # Class of committed instruction (Count)
system.cpu.commit.commitEligibleSamples       9275122                       # number cycles where commit BW limit reached (Cycle)
system.cpu.dcache.demandHits::cpu.data       40843368                       # number of demand (read+write) hits (Count)
system.cpu.dcache.demandHits::total          40843368                       # number of demand (read+write) hits (Count)
system.cpu.dcache.overallHits::cpu.data      40920063                       # number of overall hits (Count)
system.cpu.dcache.overallHits::total         40920063                       # number of overall hits (Count)
system.cpu.dcache.demandMisses::cpu.data       233807                       # number of demand (read+write) misses (Count)
system.cpu.dcache.demandMisses::total          233807                       # number of demand (read+write) misses (Count)
system.cpu.dcache.overallMisses::cpu.data       233863                       # number of overall misses (Count)
system.cpu.dcache.overallMisses::total         233863                       # number of overall misses (Count)
system.cpu.dcache.demandMissLatency::cpu.data  15263529543                       # number of demand (read+write) miss ticks (Tick)
system.cpu.dcache.demandMissLatency::total  15263529543                       # number of demand (read+write) miss ticks (Tick)
system.cpu.dcache.overallMissLatency::cpu.data  15263529543                       # number of overall miss ticks (Tick)
system.cpu.dcache.overallMissLatency::total  15263529543                       # number of overall miss ticks (Tick)
system.cpu.dcache.demandAccesses::cpu.data     41077175                       # number of demand (read+write) accesses (Count)
system.cpu.dcache.demandAccesses::total      41077175                       # number of demand (read+write) accesses (Count)
system.cpu.dcache.overallAccesses::cpu.data     41153926                       # number of overall (read+write) accesses (Count)
system.cpu.dcache.overallAccesses::total     41153926                       # number of overall (read+write) accesses (Count)
system.cpu.dcache.demandMissRate::cpu.data     0.005692                       # miss rate for demand accesses (Ratio)
system.cpu.dcache.demandMissRate::total      0.005692                       # miss rate for demand accesses (Ratio)
system.cpu.dcache.overallMissRate::cpu.data     0.005683                       # miss rate for overall accesses (Ratio)
system.cpu.dcache.overallMissRate::total     0.005683                       # miss rate for overall accesses (Ratio)
system.cpu.dcache.demandAvgMissLatency::cpu.data 65282.602929                       # average overall miss latency ((Cycle/Count))
system.cpu.dcache.demandAvgMissLatency::total 65282.602929                       # average overall miss latency ((Cycle/Count))
system.cpu.dcache.overallAvgMissLatency::cpu.data 65266.970590                       # average overall miss latency ((Cycle/Count))
system.cpu.dcache.overallAvgMissLatency::total 65266.970590                       # average overall miss latency ((Cycle/Count))
system.cpu.dcache.blockedCycles::no_mshrs       900228                       # number of cycles access was blocked (Cycle)
system.cpu.dcache.blockedCycles::no_targets            0                       # number of cycles access was blocked (Cycle)
system.cpu.dcache.blockedCauses::no_mshrs        17850                       # number of times access was blocked (Count)
system.cpu.dcache.blockedCauses::no_targets            0                       # number of times access was blocked (Count)
system.cpu.dcache.avgBlocked::no_mshrs      50.432941                       # average number of cycles each access was blocked ((Cycle/Count))
system.cpu.dcache.avgBlocked::no_targets          nan                       # average number of cycles each access was blocked ((Cycle/Count))
system.cpu.dcache.writebacks::writebacks        25956                       # number of writebacks (Count)
system.cpu.dcache.writebacks::total             25956                       # number of writebacks (Count)
system.cpu.dcache.demandMshrHits::cpu.data       166575                       # number of demand (read+write) MSHR hits (Count)
system.cpu.dcache.demandMshrHits::total        166575                       # number of demand (read+write) MSHR hits (Count)
system.cpu.dcache.overallMshrHits::cpu.data       166575                       # number of overall MSHR hits (Count)
system.cpu.dcache.overallMshrHits::total       166575                       # number of overall MSHR hits (Count)
system.cpu.dcache.demandMshrMisses::cpu.data        67232                       # number of demand (read+write) MSHR misses (Count)
system.cpu.dcache.demandMshrMisses::total        67232                       # number of demand (read+write) MSHR misses (Count)
system.cpu.dcache.overallMshrMisses::cpu.data        67288                       # number of overall MSHR misses (Count)
system.cpu.dcache.overallMshrMisses::total        67288                       # number of overall MSHR misses (Count)
system.cpu.dcache.demandMshrMissLatency::cpu.data   4461266906                       # number of demand (read+write) MSHR miss ticks (Tick)
system.cpu.dcache.demandMshrMissLatency::total   4461266906                       # number of demand (read+write) MSHR miss ticks (Tick)
system.cpu.dcache.overallMshrMissLatency::cpu.data   4464785406                       # number of overall MSHR miss ticks (Tick)
system.cpu.dcache.overallMshrMissLatency::total   4464785406                       # number of overall MSHR miss ticks (Tick)
system.cpu.dcache.demandMshrMissRate::cpu.data     0.001637                       # mshr miss ratio for demand accesses (Ratio)
system.cpu.dcache.demandMshrMissRate::total     0.001637                       # mshr miss ratio for demand accesses (Ratio)
system.cpu.dcache.overallMshrMissRate::cpu.data     0.001635                       # mshr miss ratio for overall accesses (Ratio)
system.cpu.dcache.overallMshrMissRate::total     0.001635                       # mshr miss ratio for overall accesses (Ratio)
system.cpu.dcache.demandAvgMshrMissLatency::cpu.data 66356.302148                       # average overall mshr miss latency ((Cycle/Count))
system.cpu.dcache.demandAvgMshrMissLatency::total 66356.302148                       # average overall mshr miss latency ((Cycle/Count))
system.cpu.dcache.overallAvgMshrMissLatency::cpu.data 66353.367703                       # average overall mshr miss latency ((Cycle/Count))
system.cpu.dcache.overallAvgMshrMissLatency::total 66353.367703                       # average overall mshr miss latency ((Cycle/Count))
system.cpu.dcache.replacements                  66779                       # number of replacements (Count)
system.cpu.dcache.LoadLockedReq.hits::cpu.data           41                       # number of LoadLockedReq hits (Count)
system.cpu.dcache.LoadLockedReq.hits::total           41                       # number of LoadLockedReq hits (Count)
system.cpu.dcache.LoadLockedReq.misses::cpu.data            6                       # number of LoadLockedReq misses (Count)
system.cpu.dcache.LoadLockedReq.misses::total            6                       # number of LoadLockedReq misses (Count)
system.cpu.dcache.LoadLockedReq.missLatency::cpu.data       471500                       # number of LoadLockedReq miss ticks (Tick)
system.cpu.dcache.LoadLockedReq.missLatency::total       471500                       # number of LoadLockedReq miss ticks (Tick)
system.cpu.dcache.LoadLockedReq.accesses::cpu.data           47                       # number of LoadLockedReq accesses(hits+misses) (Count)
system.cpu.dcache.LoadLockedReq.accesses::total           47                       # number of LoadLockedReq accesses(hits+misses) (Count)
system.cpu.dcache.LoadLockedReq.missRate::cpu.data     0.127660                       # miss rate for LoadLockedReq accesses (Ratio)
system.cpu.dcache.LoadLockedReq.missRate::total     0.127660                       # miss rate for LoadLockedReq accesses (Ratio)
system.cpu.dcache.LoadLockedReq.avgMissLatency::cpu.data 78583.333333                       # average LoadLockedReq miss latency ((Tick/Count))
system.cpu.dcache.LoadLockedReq.avgMissLatency::total 78583.333333                       # average LoadLockedReq miss latency ((Tick/Count))
system.cpu.dcache.LoadLockedReq.mshrHits::cpu.data            3                       # number of LoadLockedReq MSHR hits (Count)
system.cpu.dcache.LoadLockedReq.mshrHits::total            3                       # number of LoadLockedReq MSHR hits (Count)
system.cpu.dcache.LoadLockedReq.mshrMisses::cpu.data            3                       # number of LoadLockedReq MSHR misses (Count)
system.cpu.dcache.LoadLockedReq.mshrMisses::total            3                       # number of LoadLockedReq MSHR misses (Count)
system.cpu.dcache.LoadLockedReq.mshrMissLatency::cpu.data       241500                       # number of LoadLockedReq MSHR miss ticks (Tick)
system.cpu.dcache.LoadLockedReq.mshrMissLatency::total       241500                       # number of LoadLockedReq MSHR miss ticks (Tick)
system.cpu.dcache.LoadLockedReq.mshrMissRate::cpu.data     0.063830                       # mshr miss rate for LoadLockedReq accesses (Ratio)
system.cpu.dcache.LoadLockedReq.mshrMissRate::total     0.063830                       # mshr miss rate for LoadLockedReq accesses (Ratio)
system.cpu.dcache.LoadLockedReq.avgMshrMissLatency::cpu.data        80500                       # average LoadLockedReq mshr miss latency ((Tick/Count))
system.cpu.dcache.LoadLockedReq.avgMshrMissLatency::total        80500                       # average LoadLockedReq mshr miss latency ((Tick/Count))
system.cpu.dcache.ReadReq.hits::cpu.data     25725412                       # number of ReadReq hits (Count)
system.cpu.dcache.ReadReq.hits::total        25725412                       # number of ReadReq hits (Count)
system.cpu.dcache.ReadReq.misses::cpu.data       160700                       # number of ReadReq misses (Count)
system.cpu.dcache.ReadReq.misses::total        160700                       # number of ReadReq misses (Count)
system.cpu.dcache.ReadReq.missLatency::cpu.data   9675077500                       # number of ReadReq miss ticks (Tick)
system.cpu.dcache.ReadReq.missLatency::total   9675077500                       # number of ReadReq miss ticks (Tick)
system.cpu.dcache.ReadReq.accesses::cpu.data     25886112                       # number of ReadReq accesses(hits+misses) (Count)
system.cpu.dcache.ReadReq.accesses::total     25886112                       # number of ReadReq accesses(hits+misses) (Count)
system.cpu.dcache.ReadReq.missRate::cpu.data     0.006208                       # miss rate for ReadReq accesses (Ratio)
system.cpu.dcache.ReadReq.missRate::total     0.006208                       # miss rate for ReadReq accesses (Ratio)
system.cpu.dcache.ReadReq.avgMissLatency::cpu.data 60205.833852                       # average ReadReq miss latency ((Tick/Count))
system.cpu.dcache.ReadReq.avgMissLatency::total 60205.833852                       # average ReadReq miss latency ((Tick/Count))
system.cpu.dcache.ReadReq.mshrHits::cpu.data       109737                       # number of ReadReq MSHR hits (Count)
system.cpu.dcache.ReadReq.mshrHits::total       109737                       # number of ReadReq MSHR hits (Count)
system.cpu.dcache.ReadReq.mshrMisses::cpu.data        50963                       # number of ReadReq MSHR misses (Count)
system.cpu.dcache.ReadReq.mshrMisses::total        50963                       # number of ReadReq MSHR misses (Count)
system.cpu.dcache.ReadReq.mshrMissLatency::cpu.data   3182589500                       # number of ReadReq MSHR miss ticks (Tick)
system.cpu.dcache.ReadReq.mshrMissLatency::total   3182589500                       # number of ReadReq MSHR miss ticks (Tick)
system.cpu.dcache.ReadReq.mshrMissRate::cpu.data     0.001969                       # mshr miss rate for ReadReq accesses (Ratio)
system.cpu.dcache.ReadReq.mshrMissRate::total     0.001969                       # mshr miss rate for ReadReq accesses (Ratio)
system.cpu.dcache.ReadReq.avgMshrMissLatency::cpu.data 62449.021839                       # average ReadReq mshr miss latency ((Tick/Count))
system.cpu.dcache.ReadReq.avgMshrMissLatency::total 62449.021839                       # average ReadReq mshr miss latency ((Tick/Count))
system.cpu.dcache.SoftPFReq.hits::cpu.data        76695                       # number of SoftPFReq hits (Count)
system.cpu.dcache.SoftPFReq.hits::total         76695                       # number of SoftPFReq hits (Count)
system.cpu.dcache.SoftPFReq.misses::cpu.data           56                       # number of SoftPFReq misses (Count)
system.cpu.dcache.SoftPFReq.misses::total           56                       # number of SoftPFReq misses (Count)
system.cpu.dcache.SoftPFReq.accesses::cpu.data        76751                       # number of SoftPFReq accesses(hits+misses) (Count)
system.cpu.dcache.SoftPFReq.accesses::total        76751                       # number of SoftPFReq accesses(hits+misses) (Count)
system.cpu.dcache.SoftPFReq.missRate::cpu.data     0.000730                       # miss rate for SoftPFReq accesses (Ratio)
system.cpu.dcache.SoftPFReq.missRate::total     0.000730                       # miss rate for SoftPFReq accesses (Ratio)
system.cpu.dcache.SoftPFReq.mshrMisses::cpu.data           56                       # number of SoftPFReq MSHR misses (Count)
system.cpu.dcache.SoftPFReq.mshrMisses::total           56                       # number of SoftPFReq MSHR misses (Count)
system.cpu.dcache.SoftPFReq.mshrMissLatency::cpu.data      3518500                       # number of SoftPFReq MSHR miss ticks (Tick)
system.cpu.dcache.SoftPFReq.mshrMissLatency::total      3518500                       # number of SoftPFReq MSHR miss ticks (Tick)
system.cpu.dcache.SoftPFReq.mshrMissRate::cpu.data     0.000730                       # mshr miss rate for SoftPFReq accesses (Ratio)
system.cpu.dcache.SoftPFReq.mshrMissRate::total     0.000730                       # mshr miss rate for SoftPFReq accesses (Ratio)
system.cpu.dcache.SoftPFReq.avgMshrMissLatency::cpu.data 62830.357143                       # average SoftPFReq mshr miss latency ((Tick/Count))
system.cpu.dcache.SoftPFReq.avgMshrMissLatency::total 62830.357143                       # average SoftPFReq mshr miss latency ((Tick/Count))
system.cpu.dcache.StoreCondReq.hits::cpu.data           10                       # number of StoreCondReq hits (Count)
system.cpu.dcache.StoreCondReq.hits::total           10                       # number of StoreCondReq hits (Count)
system.cpu.dcache.StoreCondReq.accesses::cpu.data           10                       # number of StoreCondReq accesses(hits+misses) (Count)
system.cpu.dcache.StoreCondReq.accesses::total           10                       # number of StoreCondReq accesses(hits+misses) (Count)
system.cpu.dcache.SwapReq.hits::cpu.data        98357                       # number of SwapReq hits (Count)
system.cpu.dcache.SwapReq.hits::total           98357                       # number of SwapReq hits (Count)
system.cpu.dcache.SwapReq.misses::cpu.data            1                       # number of SwapReq misses (Count)
system.cpu.dcache.SwapReq.misses::total             1                       # number of SwapReq misses (Count)
system.cpu.dcache.SwapReq.missLatency::cpu.data        97000                       # number of SwapReq miss ticks (Tick)
system.cpu.dcache.SwapReq.missLatency::total        97000                       # number of SwapReq miss ticks (Tick)
system.cpu.dcache.SwapReq.accesses::cpu.data        98358                       # number of SwapReq accesses(hits+misses) (Count)
system.cpu.dcache.SwapReq.accesses::total        98358                       # number of SwapReq accesses(hits+misses) (Count)
system.cpu.dcache.SwapReq.missRate::cpu.data     0.000010                       # miss rate for SwapReq accesses (Ratio)
system.cpu.dcache.SwapReq.missRate::total     0.000010                       # miss rate for SwapReq accesses (Ratio)
system.cpu.dcache.SwapReq.avgMissLatency::cpu.data        97000                       # average SwapReq miss latency ((Tick/Count))
system.cpu.dcache.SwapReq.avgMissLatency::total        97000                       # average SwapReq miss latency ((Tick/Count))
system.cpu.dcache.SwapReq.mshrHits::cpu.data            1                       # number of SwapReq MSHR hits (Count)
system.cpu.dcache.SwapReq.mshrHits::total            1                       # number of SwapReq MSHR hits (Count)
system.cpu.dcache.WriteLineReq.misses::cpu.data         2054                       # number of WriteLineReq misses (Count)
system.cpu.dcache.WriteLineReq.misses::total         2054                       # number of WriteLineReq misses (Count)
system.cpu.dcache.WriteLineReq.missLatency::cpu.data     40994918                       # number of WriteLineReq miss ticks (Tick)
system.cpu.dcache.WriteLineReq.missLatency::total     40994918                       # number of WriteLineReq miss ticks (Tick)
system.cpu.dcache.WriteLineReq.accesses::cpu.data         2054                       # number of WriteLineReq accesses(hits+misses) (Count)
system.cpu.dcache.WriteLineReq.accesses::total         2054                       # number of WriteLineReq accesses(hits+misses) (Count)
system.cpu.dcache.WriteLineReq.missRate::cpu.data            1                       # miss rate for WriteLineReq accesses (Ratio)
system.cpu.dcache.WriteLineReq.missRate::total            1                       # miss rate for WriteLineReq accesses (Ratio)
system.cpu.dcache.WriteLineReq.avgMissLatency::cpu.data 19958.577410                       # average WriteLineReq miss latency ((Tick/Count))
system.cpu.dcache.WriteLineReq.avgMissLatency::total 19958.577410                       # average WriteLineReq miss latency ((Tick/Count))
system.cpu.dcache.WriteLineReq.mshrMisses::cpu.data         2054                       # number of WriteLineReq MSHR misses (Count)
system.cpu.dcache.WriteLineReq.mshrMisses::total         2054                       # number of WriteLineReq MSHR misses (Count)
system.cpu.dcache.WriteLineReq.mshrMissLatency::cpu.data     38940918                       # number of WriteLineReq MSHR miss ticks (Tick)
system.cpu.dcache.WriteLineReq.mshrMissLatency::total     38940918                       # number of WriteLineReq MSHR miss ticks (Tick)
system.cpu.dcache.WriteLineReq.mshrMissRate::cpu.data            1                       # mshr miss rate for WriteLineReq accesses (Ratio)
system.cpu.dcache.WriteLineReq.mshrMissRate::total            1                       # mshr miss rate for WriteLineReq accesses (Ratio)
system.cpu.dcache.WriteLineReq.avgMshrMissLatency::cpu.data 18958.577410                       # average WriteLineReq mshr miss latency ((Tick/Count))
system.cpu.dcache.WriteLineReq.avgMshrMissLatency::total 18958.577410                       # average WriteLineReq mshr miss latency ((Tick/Count))
system.cpu.dcache.WriteReq.hits::cpu.data     15117956                       # number of WriteReq hits (Count)
system.cpu.dcache.WriteReq.hits::total       15117956                       # number of WriteReq hits (Count)
system.cpu.dcache.WriteReq.misses::cpu.data        71053                       # number of WriteReq misses (Count)
system.cpu.dcache.WriteReq.misses::total        71053                       # number of WriteReq misses (Count)
system.cpu.dcache.WriteReq.missLatency::cpu.data   5547457125                       # number of WriteReq miss ticks (Tick)
system.cpu.dcache.WriteReq.missLatency::total   5547457125                       # number of WriteReq miss ticks (Tick)
system.cpu.dcache.WriteReq.accesses::cpu.data     15189009                       # number of WriteReq accesses(hits+misses) (Count)
system.cpu.dcache.WriteReq.accesses::total     15189009                       # number of WriteReq accesses(hits+misses) (Count)
system.cpu.dcache.WriteReq.missRate::cpu.data     0.004678                       # miss rate for WriteReq accesses (Ratio)
system.cpu.dcache.WriteReq.missRate::total     0.004678                       # miss rate for WriteReq accesses (Ratio)
system.cpu.dcache.WriteReq.avgMissLatency::cpu.data 78074.917667                       # average WriteReq miss latency ((Tick/Count))
system.cpu.dcache.WriteReq.avgMissLatency::total 78074.917667                       # average WriteReq miss latency ((Tick/Count))
system.cpu.dcache.WriteReq.mshrHits::cpu.data        56838                       # number of WriteReq MSHR hits (Count)
system.cpu.dcache.WriteReq.mshrHits::total        56838                       # number of WriteReq MSHR hits (Count)
system.cpu.dcache.WriteReq.mshrMisses::cpu.data        14215                       # number of WriteReq MSHR misses (Count)
system.cpu.dcache.WriteReq.mshrMisses::total        14215                       # number of WriteReq MSHR misses (Count)
system.cpu.dcache.WriteReq.mshrMissLatency::cpu.data   1239736488                       # number of WriteReq MSHR miss ticks (Tick)
system.cpu.dcache.WriteReq.mshrMissLatency::total   1239736488                       # number of WriteReq MSHR miss ticks (Tick)
system.cpu.dcache.WriteReq.mshrMissRate::cpu.data     0.000936                       # mshr miss rate for WriteReq accesses (Ratio)
system.cpu.dcache.WriteReq.mshrMissRate::total     0.000936                       # mshr miss rate for WriteReq accesses (Ratio)
system.cpu.dcache.WriteReq.avgMshrMissLatency::cpu.data 87213.259796                       # average WriteReq mshr miss latency ((Tick/Count))
system.cpu.dcache.WriteReq.avgMshrMissLatency::total 87213.259796                       # average WriteReq mshr miss latency ((Tick/Count))
system.cpu.dcache.power_state.pwrStateResidencyTicks::UNDEFINED  33393118500                       # Cumulative time (in ticks) in various power states (Tick)
system.cpu.dcache.tags.tagsInUse           510.874415                       # Average ticks per tags in use ((Tick/Count))
system.cpu.dcache.tags.totalRefs             41085762                       # Total number of references to valid blocks. (Count)
system.cpu.dcache.tags.sampledRefs              67291                       # Sample count of references to valid blocks. (Count)
system.cpu.dcache.tags.avgRefs             610.568456                       # Average number of references to valid blocks. ((Count/Count))
system.cpu.dcache.tags.warmupTick              145000                       # The tick when the warmup percentage was hit. (Tick)
system.cpu.dcache.tags.occupancies::cpu.data   510.874415                       # Average occupied blocks per tick, per requestor ((Count/Tick))
system.cpu.dcache.tags.avgOccs::cpu.data     0.997802                       # Average percentage of cache occupancy ((Ratio/Tick))
system.cpu.dcache.tags.avgOccs::total        0.997802                       # Average percentage of cache occupancy ((Ratio/Tick))
system.cpu.dcache.tags.occupanciesTaskId::1024          512                       # Occupied blocks per task id (Count)
system.cpu.dcache.tags.ageTaskId_1024::0           72                       # Occupied blocks per task id, per block age (Count)
system.cpu.dcache.tags.ageTaskId_1024::1           12                       # Occupied blocks per task id, per block age (Count)
system.cpu.dcache.tags.ageTaskId_1024::2          113                       # Occupied blocks per task id, per block age (Count)
system.cpu.dcache.tags.ageTaskId_1024::3          156                       # Occupied blocks per task id, per block age (Count)
system.cpu.dcache.tags.ageTaskId_1024::4          159                       # Occupied blocks per task id, per block age (Count)
system.cpu.dcache.tags.ratioOccsTaskId::1024            1                       # Ratio of occupied blocks and all blocks, per task id (Ratio)
system.cpu.dcache.tags.tagAccesses           82571973                       # Number of tag accesses (Count)
system.cpu.dcache.tags.dataAccesses          82571973                       # Number of data accesses (Count)
system.cpu.dcache.tags.power_state.pwrStateResidencyTicks::UNDEFINED  33393118500                       # Cumulative time (in ticks) in various power states (Tick)
system.cpu.decode.idleCycles                 21768690                       # Number of cycles decode is idle (Cycle)
system.cpu.decode.blockedCycles              13300251                       # Number of cycles decode is blocked (Cycle)
system.cpu.decode.runCycles                  27334303                       # Number of cycles decode is running (Cycle)
system.cpu.decode.unblockCycles               2266232                       # Number of cycles decode is unblocking (Cycle)
system.cpu.decode.squashCycles                 267466                       # Number of cycles decode is squashing (Cycle)
system.cpu.decode.branchResolved             14038871                       # Number of times decode resolved a branch (Count)
system.cpu.decode.branchMispred                 13415                       # Number of times decode detected a branch misprediction (Count)
system.cpu.decode.decodedInsts              157627511                       # Number of instructions handled by decode (Count)
system.cpu.decode.squashedInsts                 95235                       # Number of squashed instructions handled by decode (Count)
system.cpu.fetch.icacheStallCycles           24994682                       # Number of cycles fetch is stalled on an Icache miss (Cycle)
system.cpu.fetch.insts                      147493391                       # Number of instructions fetch has processed (Count)
system.cpu.fetch.branches                    25984205                       # Number of branches that fetch encountered (Count)
system.cpu.fetch.predictedBranches           15653717                       # Number of branches that fetch has predicted taken (Count)
system.cpu.fetch.cycles                      39661267                       # Number of cycles fetch has run and was not squashing or blocked (Cycle)
system.cpu.fetch.squashCycles                  561744                       # Number of cycles fetch has spent squashing (Cycle)
system.cpu.fetch.miscStallCycles                    8                       # Number of cycles fetch has spent waiting on interrupts, or bad addresses, or out of MSHRs (Cycle)
system.cpu.fetch.icacheWaitRetryStallCycles          113                       # Number of stall cycles due to full MSHR (Cycle)
system.cpu.fetch.cacheLines                  22241612                       # Number of cache lines fetched (Count)
system.cpu.fetch.icacheSquashes                118369                       # Number of outstanding Icache misses that were squashed (Count)
system.cpu.fetch.nisnDist::samples           64936942                       # Number of instructions fetched each cycle (Total) (Count)
system.cpu.fetch.nisnDist::mean              2.471712                       # Number of instructions fetched each cycle (Total) (Count)
system.cpu.fetch.nisnDist::stdev             3.127427                       # Number of instructions fetched each cycle (Total) (Count)
system.cpu.fetch.nisnDist::underflows               0      0.00%      0.00% # Number of instructions fetched each cycle (Total) (Count)
system.cpu.fetch.nisnDist::0                 33075926     50.94%     50.94% # Number of instructions fetched each cycle (Total) (Count)
system.cpu.fetch.nisnDist::1                  5156015      7.94%     58.88% # Number of instructions fetched each cycle (Total) (Count)
system.cpu.fetch.nisnDist::2                  2677047      4.12%     63.00% # Number of instructions fetched each cycle (Total) (Count)
system.cpu.fetch.nisnDist::3                  2187574      3.37%     66.37% # Number of instructions fetched each cycle (Total) (Count)
system.cpu.fetch.nisnDist::4                  4411102      6.79%     73.16% # Number of instructions fetched each cycle (Total) (Count)
system.cpu.fetch.nisnDist::5                  1861666      2.87%     76.03% # Number of instructions fetched each cycle (Total) (Count)
system.cpu.fetch.nisnDist::6                  1887592      2.91%     78.93% # Number of instructions fetched each cycle (Total) (Count)
system.cpu.fetch.nisnDist::7                  4285840      6.60%     85.53% # Number of instructions fetched each cycle (Total) (Count)
system.cpu.fetch.nisnDist::8                  9394180     14.47%    100.00% # Number of instructions fetched each cycle (Total) (Count)
system.cpu.fetch.nisnDist::overflows                0      0.00%    100.00% # Number of instructions fetched each cycle (Total) (Count)
system.cpu.fetch.nisnDist::min_value                0                       # Number of instructions fetched each cycle (Total) (Count)
system.cpu.fetch.nisnDist::max_value                8                       # Number of instructions fetched each cycle (Total) (Count)
system.cpu.fetch.nisnDist::total             64936942                       # Number of instructions fetched each cycle (Total) (Count)
system.cpu.fetch.branchRate                  0.389065                       # Number of branch fetches per cycle (Ratio)
system.cpu.fetch.rate                        2.208440                       # Number of inst fetches per cycle ((Count/Cycle))
system.cpu.icache.demandHits::cpu.inst       22133977                       # number of demand (read+write) hits (Count)
system.cpu.icache.demandHits::total          22133977                       # number of demand (read+write) hits (Count)
system.cpu.icache.overallHits::cpu.inst      22133977                       # number of overall hits (Count)
system.cpu.icache.overallHits::total         22133977                       # number of overall hits (Count)
system.cpu.icache.demandMisses::cpu.inst       107635                       # number of demand (read+write) misses (Count)
system.cpu.icache.demandMisses::total          107635                       # number of demand (read+write) misses (Count)
system.cpu.icache.overallMisses::cpu.inst       107635                       # number of overall misses (Count)
system.cpu.icache.overallMisses::total         107635                       # number of overall misses (Count)
system.cpu.icache.demandMissLatency::cpu.inst   2498249996                       # number of demand (read+write) miss ticks (Tick)
system.cpu.icache.demandMissLatency::total   2498249996                       # number of demand (read+write) miss ticks (Tick)
system.cpu.icache.overallMissLatency::cpu.inst   2498249996                       # number of overall miss ticks (Tick)
system.cpu.icache.overallMissLatency::total   2498249996                       # number of overall miss ticks (Tick)
system.cpu.icache.demandAccesses::cpu.inst     22241612                       # number of demand (read+write) accesses (Count)
system.cpu.icache.demandAccesses::total      22241612                       # number of demand (read+write) accesses (Count)
system.cpu.icache.overallAccesses::cpu.inst     22241612                       # number of overall (read+write) accesses (Count)
system.cpu.icache.overallAccesses::total     22241612                       # number of overall (read+write) accesses (Count)
system.cpu.icache.demandMissRate::cpu.inst     0.004839                       # miss rate for demand accesses (Ratio)
system.cpu.icache.demandMissRate::total      0.004839                       # miss rate for demand accesses (Ratio)
system.cpu.icache.overallMissRate::cpu.inst     0.004839                       # miss rate for overall accesses (Ratio)
system.cpu.icache.overallMissRate::total     0.004839                       # miss rate for overall accesses (Ratio)
system.cpu.icache.demandAvgMissLatency::cpu.inst 23210.386919                       # average overall miss latency ((Cycle/Count))
system.cpu.icache.demandAvgMissLatency::total 23210.386919                       # average overall miss latency ((Cycle/Count))
system.cpu.icache.overallAvgMissLatency::cpu.inst 23210.386919                       # average overall miss latency ((Cycle/Count))
system.cpu.icache.overallAvgMissLatency::total 23210.386919                       # average overall miss latency ((Cycle/Count))
system.cpu.icache.blockedCycles::no_mshrs          998                       # number of cycles access was blocked (Cycle)
system.cpu.icache.blockedCycles::no_targets            0                       # number of cycles access was blocked (Cycle)
system.cpu.icache.blockedCauses::no_mshrs           19                       # number of times access was blocked (Count)
system.cpu.icache.blockedCauses::no_targets            0                       # number of times access was blocked (Count)
system.cpu.icache.avgBlocked::no_mshrs      52.526316                       # average number of cycles each access was blocked ((Cycle/Count))
system.cpu.icache.avgBlocked::no_targets          nan                       # average number of cycles each access was blocked ((Cycle/Count))
system.cpu.icache.writebacks::writebacks       101990                       # number of writebacks (Count)
system.cpu.icache.writebacks::total            101990                       # number of writebacks (Count)
system.cpu.icache.demandMshrHits::cpu.inst         5144                       # number of demand (read+write) MSHR hits (Count)
system.cpu.icache.demandMshrHits::total          5144                       # number of demand (read+write) MSHR hits (Count)
system.cpu.icache.overallMshrHits::cpu.inst         5144                       # number of overall MSHR hits (Count)
system.cpu.icache.overallMshrHits::total         5144                       # number of overall MSHR hits (Count)
system.cpu.icache.demandMshrMisses::cpu.inst       102491                       # number of demand (read+write) MSHR misses (Count)
system.cpu.icache.demandMshrMisses::total       102491                       # number of demand (read+write) MSHR misses (Count)
system.cpu.icache.overallMshrMisses::cpu.inst       102491                       # number of overall MSHR misses (Count)
system.cpu.icache.overallMshrMisses::total       102491                       # number of overall MSHR misses (Count)
system.cpu.icache.demandMshrMissLatency::cpu.inst   2310859998                       # number of demand (read+write) MSHR miss ticks (Tick)
system.cpu.icache.demandMshrMissLatency::total   2310859998                       # number of demand (read+write) MSHR miss ticks (Tick)
system.cpu.icache.overallMshrMissLatency::cpu.inst   2310859998                       # number of overall MSHR miss ticks (Tick)
system.cpu.icache.overallMshrMissLatency::total   2310859998                       # number of overall MSHR miss ticks (Tick)
system.cpu.icache.demandMshrMissRate::cpu.inst     0.004608                       # mshr miss ratio for demand accesses (Ratio)
system.cpu.icache.demandMshrMissRate::total     0.004608                       # mshr miss ratio for demand accesses (Ratio)
system.cpu.icache.overallMshrMissRate::cpu.inst     0.004608                       # mshr miss ratio for overall accesses (Ratio)
system.cpu.icache.overallMshrMissRate::total     0.004608                       # mshr miss ratio for overall accesses (Ratio)
system.cpu.icache.demandAvgMshrMissLatency::cpu.inst 22546.955323                       # average overall mshr miss latency ((Cycle/Count))
system.cpu.icache.demandAvgMshrMissLatency::total 22546.955323                       # average overall mshr miss latency ((Cycle/Count))
system.cpu.icache.overallAvgMshrMissLatency::cpu.inst 22546.955323                       # average overall mshr miss latency ((Cycle/Count))
system.cpu.icache.overallAvgMshrMissLatency::total 22546.955323                       # average overall mshr miss latency ((Cycle/Count))
system.cpu.icache.replacements                 101990                       # number of replacements (Count)
system.cpu.icache.ReadReq.hits::cpu.inst     22133977                       # number of ReadReq hits (Count)
system.cpu.icache.ReadReq.hits::total        22133977                       # number of ReadReq hits (Count)
system.cpu.icache.ReadReq.misses::cpu.inst       107635                       # number of ReadReq misses (Count)
system.cpu.icache.ReadReq.misses::total        107635                       # number of ReadReq misses (Count)
system.cpu.icache.ReadReq.missLatency::cpu.inst   2498249996                       # number of ReadReq miss ticks (Tick)
system.cpu.icache.ReadReq.missLatency::total   2498249996                       # number of ReadReq miss ticks (Tick)
system.cpu.icache.ReadReq.accesses::cpu.inst     22241612                       # number of ReadReq accesses(hits+misses) (Count)
system.cpu.icache.ReadReq.accesses::total     22241612                       # number of ReadReq accesses(hits+misses) (Count)
system.cpu.icache.ReadReq.missRate::cpu.inst     0.004839                       # miss rate for ReadReq accesses (Ratio)
system.cpu.icache.ReadReq.missRate::total     0.004839                       # miss rate for ReadReq accesses (Ratio)
system.cpu.icache.ReadReq.avgMissLatency::cpu.inst 23210.386919                       # average ReadReq miss latency ((Tick/Count))
system.cpu.icache.ReadReq.avgMissLatency::total 23210.386919                       # average ReadReq miss latency ((Tick/Count))
system.cpu.icache.ReadReq.mshrHits::cpu.inst         5144                       # number of ReadReq MSHR hits (Count)
system.cpu.icache.ReadReq.mshrHits::total         5144                       # number of ReadReq MSHR hits (Count)
system.cpu.icache.ReadReq.mshrMisses::cpu.inst       102491                       # number of ReadReq MSHR misses (Count)
system.cpu.icache.ReadReq.mshrMisses::total       102491                       # number of ReadReq MSHR misses (Count)
system.cpu.icache.ReadReq.mshrMissLatency::cpu.inst   2310859998                       # number of ReadReq MSHR miss ticks (Tick)
system.cpu.icache.ReadReq.mshrMissLatency::total   2310859998                       # number of ReadReq MSHR miss ticks (Tick)
system.cpu.icache.ReadReq.mshrMissRate::cpu.inst     0.004608                       # mshr miss rate for ReadReq accesses (Ratio)
system.cpu.icache.ReadReq.mshrMissRate::total     0.004608                       # mshr miss rate for ReadReq accesses (Ratio)
system.cpu.icache.ReadReq.avgMshrMissLatency::cpu.inst 22546.955323                       # average ReadReq mshr miss latency ((Tick/Count))
system.cpu.icache.ReadReq.avgMshrMissLatency::total 22546.955323                       # average ReadReq mshr miss latency ((Tick/Count))
system.cpu.icache.power_state.pwrStateResidencyTicks::UNDEFINED  33393118500                       # Cumulative time (in ticks) in various power states (Tick)
system.cpu.icache.tags.tagsInUse           494.455686                       # Average ticks per tags in use ((Tick/Count))
system.cpu.icache.tags.totalRefs             22236467                       # Total number of references to valid blocks. (Count)
system.cpu.icache.tags.sampledRefs             102490                       # Sample count of references to valid blocks. (Count)
system.cpu.icache.tags.avgRefs             216.962309                       # Average number of references to valid blocks. ((Count/Count))
system.cpu.icache.tags.warmupTick               77000                       # The tick when the warmup percentage was hit. (Tick)
system.cpu.icache.tags.occupancies::cpu.inst   494.455686                       # Average occupied blocks per tick, per requestor ((Count/Tick))
system.cpu.icache.tags.avgOccs::cpu.inst     0.965734                       # Average percentage of cache occupancy ((Ratio/Tick))
system.cpu.icache.tags.avgOccs::total        0.965734                       # Average percentage of cache occupancy ((Ratio/Tick))
system.cpu.icache.tags.occupanciesTaskId::1024          500                       # Occupied blocks per task id (Count)
system.cpu.icache.tags.ageTaskId_1024::0           97                       # Occupied blocks per task id, per block age (Count)
system.cpu.icache.tags.ageTaskId_1024::1            1                       # Occupied blocks per task id, per block age (Count)
system.cpu.icache.tags.ageTaskId_1024::3           17                       # Occupied blocks per task id, per block age (Count)
system.cpu.icache.tags.ageTaskId_1024::4          385                       # Occupied blocks per task id, per block age (Count)
system.cpu.icache.tags.ratioOccsTaskId::1024     0.976562                       # Ratio of occupied blocks and all blocks, per task id (Ratio)
system.cpu.icache.tags.tagAccesses           44585714                       # Number of tag accesses (Count)
system.cpu.icache.tags.dataAccesses          44585714                       # Number of data accesses (Count)
system.cpu.icache.tags.power_state.pwrStateResidencyTicks::UNDEFINED  33393118500                       # Cumulative time (in ticks) in various power states (Tick)
system.cpu.iew.idleCycles                           0                       # Number of cycles IEW is idle (Cycle)
system.cpu.iew.squashCycles                    267466                       # Number of cycles IEW is squashing (Cycle)
system.cpu.iew.blockCycles                    2016693                       # Number of cycles IEW is blocking (Cycle)
[...]
system.mem_ctrls.dram.bwRead::cpu.inst      196428495                       # Total read bandwidth from this memory ((Byte/Second))
system.mem_ctrls.dram.bwRead::cpu.data      124986709                       # Total read bandwidth from this memory ((Byte/Second))
system.mem_ctrls.dram.bwRead::total         321415204                       # Total read bandwidth from this memory ((Byte/Second))
system.mem_ctrls.dram.bwInstRead::cpu.inst    196428495                       # Instruction read bandwidth from this memory ((Byte/Second))
system.mem_ctrls.dram.bwInstRead::total     196428495                       # Instruction read bandwidth from this memory ((Byte/Second))
system.mem_ctrls.dram.bwWrite::writebacks     49746297                       # Write bandwidth from this memory ((Byte/Second))
system.mem_ctrls.dram.bwWrite::total         49746297                       # Write bandwidth from this memory ((Byte/Second))
system.mem_ctrls.dram.bwTotal::writebacks     49746297                       # Total bandwidth to/from this memory ((Byte/Second))
system.mem_ctrls.dram.bwTotal::cpu.inst     196428495                       # Total bandwidth to/from this memory ((Byte/Second))
system.mem_ctrls.dram.bwTotal::cpu.data     124986709                       # Total bandwidth to/from this memory ((Byte/Second))
system.mem_ctrls.dram.bwTotal::total        371161501                       # Total bandwidth to/from this memory ((Byte/Second))
system.mem_ctrls.dram.readBursts                58598                       # Number of DRAM read bursts (Count)
system.mem_ctrls.dram.writeBursts               19361                       # Number of DRAM write bursts (Count)
system.mem_ctrls.dram.perBankRdBursts::0         1983                       # Per bank write bursts (Count)
system.mem_ctrls.dram.perBankRdBursts::1         1992                       # Per bank write bursts (Count)
system.mem_ctrls.dram.perBankRdBursts::2         2091                       # Per bank write bursts (Count)
system.mem_ctrls.dram.perBankRdBursts::3         7232                       # Per bank write bursts (Count)
system.mem_ctrls.dram.perBankRdBursts::4         9562                       # Per bank write bursts (Count)
system.mem_ctrls.dram.perBankRdBursts::5         7658                       # Per bank write bursts (Count)
system.mem_ctrls.dram.perBankRdBursts::6         9462                       # Per bank write bursts (Count)
system.mem_ctrls.dram.perBankRdBursts::7         2475                       # Per bank write bursts (Count)
system.mem_ctrls.dram.perBankRdBursts::8         1992                       # Per bank write bursts (Count)
system.mem_ctrls.dram.perBankRdBursts::9         1934                       # Per bank write bursts (Count)
system.mem_ctrls.dram.perBankRdBursts::10         2409                       # Per bank write bursts (Count)
system.mem_ctrls.dram.perBankRdBursts::11         1982                       # Per bank write bursts (Count)
system.mem_ctrls.dram.perBankRdBursts::12         2134                       # Per bank write bursts (Count)
system.mem_ctrls.dram.perBankRdBursts::13         1936                       # Per bank write bursts (Count)
system.mem_ctrls.dram.perBankRdBursts::14         1893                       # Per bank write bursts (Count)
system.mem_ctrls.dram.perBankRdBursts::15         1863                       # Per bank write bursts (Count)
system.mem_ctrls.dram.perBankWrBursts::0         1110                       # Per bank write bursts (Count)
system.mem_ctrls.dram.perBankWrBursts::1         1109                       # Per bank write bursts (Count)
system.mem_ctrls.dram.perBankWrBursts::2         1226                       # Per bank write bursts (Count)
system.mem_ctrls.dram.perBankWrBursts::3         1351                       # Per bank write bursts (Count)
system.mem_ctrls.dram.perBankWrBursts::4         1422                       # Per bank write bursts (Count)
system.mem_ctrls.dram.perBankWrBursts::5         1424                       # Per bank write bursts (Count)
system.mem_ctrls.dram.perBankWrBursts::6         1399                       # Per bank write bursts (Count)
system.mem_ctrls.dram.perBankWrBursts::7         1209                       # Per bank write bursts (Count)
system.mem_ctrls.dram.perBankWrBursts::8         1099                       # Per bank write bursts (Count)
system.mem_ctrls.dram.perBankWrBursts::9         1219                       # Per bank write bursts (Count)
system.mem_ctrls.dram.perBankWrBursts::10         1058                       # Per bank write bursts (Count)
system.mem_ctrls.dram.perBankWrBursts::11         1244                       # Per bank write bursts (Count)
system.mem_ctrls.dram.perBankWrBursts::12         1088                       # Per bank write bursts (Count)
system.mem_ctrls.dram.perBankWrBursts::13         1252                       # Per bank write bursts (Count)
system.mem_ctrls.dram.perBankWrBursts::14         1076                       # Per bank write bursts (Count)
system.mem_ctrls.dram.perBankWrBursts::15         1075                       # Per bank write bursts (Count)
system.mem_ctrls.dram.totQLat              1391615500                       # Total ticks spent queuing (Tick)
system.mem_ctrls.dram.totBusLat             292990000                       # Total ticks spent in databus transfers (Tick)
system.mem_ctrls.dram.totMemAccLat         2490328000                       # Total ticks spent from burst creation until serviced by the DRAM (Tick)
system.mem_ctrls.dram.avgQLat                23748.52                       # Average queueing delay per DRAM burst ((Tick/Count))
system.mem_ctrls.dram.avgBusLat               5000.00                       # Average bus latency per DRAM burst ((Tick/Count))
system.mem_ctrls.dram.avgMemAccLat           42498.52                       # Average memory access latency per DRAM burst ((Tick/Count))
system.mem_ctrls.dram.readRowHits               39687                       # Number of row buffer hits during reads (Count)
system.mem_ctrls.dram.writeRowHits              17048                       # Number of row buffer hits during writes (Count)
system.mem_ctrls.dram.readRowHitRate            67.73                       # Row buffer hit rate for reads (Ratio)
system.mem_ctrls.dram.writeRowHitRate           88.05                       # Row buffer hit rate for writes (Ratio)
system.mem_ctrls.dram.bytesPerActivate::samples        21210                       # Bytes accessed per row activation (Byte)
system.mem_ctrls.dram.bytesPerActivate::mean   235.128336                       # Bytes accessed per row activation (Byte)
system.mem_ctrls.dram.bytesPerActivate::gmean   145.856130                       # Bytes accessed per row activation (Byte)
system.mem_ctrls.dram.bytesPerActivate::stdev   271.631842                       # Bytes accessed per row activation (Byte)
system.mem_ctrls.dram.bytesPerActivate::0-127         9234     43.54%     43.54% # Bytes accessed per row activation (Byte)
system.mem_ctrls.dram.bytesPerActivate::128-255         5892     27.78%     71.32% # Bytes accessed per row activation (Byte)
system.mem_ctrls.dram.bytesPerActivate::256-383         2385     11.24%     82.56% # Bytes accessed per row activation (Byte)
system.mem_ctrls.dram.bytesPerActivate::384-511          655      3.09%     85.65% # Bytes accessed per row activation (Byte)
system.mem_ctrls.dram.bytesPerActivate::512-639          557      2.63%     88.27% # Bytes accessed per row activation (Byte)
system.mem_ctrls.dram.bytesPerActivate::640-767          559      2.64%     90.91% # Bytes accessed per row activation (Byte)
system.mem_ctrls.dram.bytesPerActivate::768-895          360      1.70%     92.61% # Bytes accessed per row activation (Byte)
system.mem_ctrls.dram.bytesPerActivate::896-1023          248      1.17%     93.78% # Bytes accessed per row activation (Byte)
system.mem_ctrls.dram.bytesPerActivate::1024-1151         1320      6.22%    100.00% # Bytes accessed per row activation (Byte)
system.mem_ctrls.dram.bytesPerActivate::total        21210                       # Bytes accessed per row activation (Byte)
system.mem_ctrls.dram.bytesRead               3750272                       # Total bytes read (Byte)
system.mem_ctrls.dram.bytesWritten            1239104                       # Total bytes written (Byte)
system.mem_ctrls.dram.avgRdBW              112.306732                       # Average DRAM read bandwidth in MiBytes/s ((Byte/Second))
system.mem_ctrls.dram.avgWrBW               37.106567                       # Average DRAM write bandwidth in MiBytes/s ((Byte/Second))
system.mem_ctrls.dram.peakBW                 12800.00                       # Theoretical peak bandwidth in MiByte/s ((Byte/Second))
system.mem_ctrls.dram.busUtil                    1.17                       # Data bus utilization in percentage (Ratio)
system.mem_ctrls.dram.busUtilRead                0.88                       # Data bus utilization in percentage for reads (Ratio)
system.mem_ctrls.dram.busUtilWrite               0.29                       # Data bus utilization in percentage for writes (Ratio)
system.mem_ctrls.dram.pageHitRate               72.78                       # Row buffer hit rate, read and write combined (Ratio)
system.mem_ctrls.dram.power_state.pwrStateResidencyTicks::UNDEFINED  33393118500                       # Cumulative time (in ticks) in various power states (Tick)
system.mem_ctrls.dram.rank0.actEnergy        98767620                       # Energy for activate commands per rank (pJ) (Joule)
system.mem_ctrls.dram.rank0.preEnergy        52469670                       # Energy for precharge commands per rank (pJ) (Joule)
system.mem_ctrls.dram.rank0.readEnergy      303121560                       # Energy for read commands per rank (pJ) (Joule)
system.mem_ctrls.dram.rank0.writeEnergy      53505000                       # Energy for write commands per rank (pJ) (Joule)
system.mem_ctrls.dram.rank0.refreshEnergy 2635576320.000000                       # Energy for refresh commands per rank (pJ) (Joule)
system.mem_ctrls.dram.rank0.actBackEnergy   8938479510                       # Energy for active background per rank (pJ) (Joule)
system.mem_ctrls.dram.rank0.preBackEnergy   5295816960                       # Energy for precharge background per rank (pJ) (Joule)
system.mem_ctrls.dram.rank0.actPowerDownEnergy            0                       # Energy for active power-down per rank (pJ) (Joule)
system.mem_ctrls.dram.rank0.prePowerDownEnergy            0                       # Energy for precharge power-down per rank (pJ) (Joule)
system.mem_ctrls.dram.rank0.selfRefreshEnergy            0                       # Energy for self refresh per rank (pJ) (Joule)
system.mem_ctrls.dram.rank0.totalEnergy   17377736640                       # Total energy per rank (pJ) (Joule)
system.mem_ctrls.dram.rank0.averagePower   520.398735                       # Core power per rank (mW) (Watt)
system.mem_ctrls.dram.rank0.totalIdleTime            0                       # Total Idle time Per DRAM Rank (Tick)
system.mem_ctrls.dram.rank0.pwrStateTime::IDLE  13673902250                       # Time in different power states (Tick)
system.mem_ctrls.dram.rank0.pwrStateTime::REF   1114880000                       # Time in different power states (Tick)
system.mem_ctrls.dram.rank0.pwrStateTime::SREF            0                       # Time in different power states (Tick)
system.mem_ctrls.dram.rank0.pwrStateTime::PRE_PDN            0                       # Time in different power states (Tick)
system.mem_ctrls.dram.rank0.pwrStateTime::ACT  18604336250                       # Time in different power states (Tick)
system.mem_ctrls.dram.rank0.pwrStateTime::ACT_PDN            0                       # Time in different power states (Tick)
system.mem_ctrls.dram.rank1.actEnergy        52764600                       # Energy for activate commands per rank (pJ) (Joule)
system.mem_ctrls.dram.rank1.preEnergy        28022280                       # Energy for precharge commands per rank (pJ) (Joule)
system.mem_ctrls.dram.rank1.readEnergy      115261020                       # Energy for read commands per rank (pJ) (Joule)
system.mem_ctrls.dram.rank1.writeEnergy      47559420                       # Energy for write commands per rank (pJ) (Joule)
system.mem_ctrls.dram.rank1.refreshEnergy 2635576320.000000                       # Energy for refresh commands per rank (pJ) (Joule)
system.mem_ctrls.dram.rank1.actBackEnergy   5065926870                       # Energy for active background per rank (pJ) (Joule)
system.mem_ctrls.dram.rank1.preBackEnergy   8556913920                       # Energy for precharge background per rank (pJ) (Joule)
system.mem_ctrls.dram.rank1.actPowerDownEnergy            0                       # Energy for active power-down per rank (pJ) (Joule)
system.mem_ctrls.dram.rank1.prePowerDownEnergy            0                       # Energy for precharge power-down per rank (pJ) (Joule)
system.mem_ctrls.dram.rank1.selfRefreshEnergy            0                       # Energy for self refresh per rank (pJ) (Joule)
system.mem_ctrls.dram.rank1.totalEnergy   16502024430                       # Total energy per rank (pJ) (Joule)
system.mem_ctrls.dram.rank1.averagePower   494.174404                       # Core power per rank (mW) (Watt)
system.mem_ctrls.dram.rank1.totalIdleTime            0                       # Total Idle time Per DRAM Rank (Tick)
system.mem_ctrls.dram.rank1.pwrStateTime::IDLE  22171795750                       # Time in different power states (Tick)
system.mem_ctrls.dram.rank1.pwrStateTime::REF   1114880000                       # Time in different power states (Tick)
system.mem_ctrls.dram.rank1.pwrStateTime::SREF            0                       # Time in different power states (Tick)
system.mem_ctrls.dram.rank1.pwrStateTime::PRE_PDN            0                       # Time in different power states (Tick)
system.mem_ctrls.dram.rank1.pwrStateTime::ACT  10106442750                       # Time in different power states (Tick)
system.mem_ctrls.dram.rank1.pwrStateTime::ACT_PDN            0                       # Time in different power states (Tick)
system.mem_ctrls.power_state.pwrStateResidencyTicks::UNDEFINED  33393118500                       # Cumulative time (in ticks) in various power states (Tick)
system.membus.transDist::ReadResp              153511                       # Transaction distribution (Count)
system.membus.transDist::WritebackDirty         25956                       # Transaction distribution (Count)
system.membus.transDist::WritebackClean        101990                       # Transaction distribution (Count)
system.membus.transDist::CleanEvict             40823                       # Transaction distribution (Count)
system.membus.transDist::ReadExReq              14193                       # Transaction distribution (Count)
system.membus.transDist::ReadExResp             14193                       # Transaction distribution (Count)
system.membus.transDist::ReadCleanReq          102491                       # Transaction distribution (Count)
system.membus.transDist::ReadSharedReq          51021                       # Transaction distribution (Count)
system.membus.transDist::InvalidateReq           2077                       # Transaction distribution (Count)
system.membus.pktCount_system.cpu.icache.mem_side_port::system.mem_ctrls.port       306971                       # Packet count per connected requestor and responder (Count)
system.membus.pktCount_system.cpu.dcache.mem_side_port::system.mem_ctrls.port       199284                       # Packet count per connected requestor and responder (Count)
system.membus.pktCount::total                  506255                       # Packet count per connected requestor and responder (Count)
system.membus.pktSize_system.cpu.icache.mem_side_port::system.mem_ctrls.port     13086720                       # Cumulative packet size per connected requestor and responder (Byte)
system.membus.pktSize_system.cpu.dcache.mem_side_port::system.mem_ctrls.port      5834880                       # Cumulative packet size per connected requestor and responder (Byte)
system.membus.pktSize::total                 18921600                       # Cumulative packet size per connected requestor and responder (Byte)
system.membus.snoops                                0                       # Total snoops (Count)
system.membus.snoopTraffic                          0                       # Total snoop traffic (Byte)
system.membus.snoopFanout::samples             169782                       # Request fanout histogram (Count)
system.membus.snoopFanout::mean              0.000012                       # Request fanout histogram (Count)
system.membus.snoopFanout::stdev             0.003432                       # Request fanout histogram (Count)
system.membus.snoopFanout::underflows               0      0.00%      0.00% # Request fanout histogram (Count)
system.membus.snoopFanout::0                   169780    100.00%    100.00% # Request fanout histogram (Count)
system.membus.snoopFanout::1                        2      0.00%    100.00% # Request fanout histogram (Count)
system.membus.snoopFanout::2                        0      0.00%    100.00% # Request fanout histogram (Count)
system.membus.snoopFanout::overflows                0      0.00%    100.00% # Request fanout histogram (Count)
system.membus.snoopFanout::min_value                0                       # Request fanout histogram (Count)
system.membus.snoopFanout::max_value                1                       # Request fanout histogram (Count)
system.membus.snoopFanout::total               169782                       # Request fanout histogram (Count)
system.membus.power_state.pwrStateResidencyTicks::UNDEFINED  33393118500                       # Cumulative time (in ticks) in various power states (Tick)
system.membus.reqLayer0.occupancy           878176000                       # Layer occupancy (ticks) (Tick)
system.membus.reqLayer0.utilization               0.0                       # Layer utilization (Ratio)
system.membus.respLayer1.occupancy          513018750                       # Layer occupancy (ticks) (Tick)
system.membus.respLayer1.utilization              0.0                       # Layer utilization (Ratio)
system.membus.respLayer2.occupancy          342317000                       # Layer occupancy (ticks) (Tick)
system.membus.respLayer2.utilization              0.0                       # Layer utilization (Ratio)
system.membus.snoop_filter.totRequests         338553                       # Total number of requests made to the snoop filter. (Count)
system.membus.snoop_filter.hitSingleRequests       168772                       # Number of requests hitting in the snoop filter with a single holder of the requested data. (Count)
system.membus.snoop_filter.hitMultiRequests            1                       # Number of requests hitting in the snoop filter with multiple (>1) holders of the requested data. (Count)
system.membus.snoop_filter.totSnoops                0                       # Total number of snoops made to the snoop filter. (Count)
system.membus.snoop_filter.hitSingleSnoops            0                       # Number of snoops hitting in the snoop filter with a single holder of the requested data. (Count)
system.membus.snoop_filter.hitMultiSnoops            0                       # Number of snoops hitting in the snoop filter with multiple (>1) holders of the requested data. (Count)
system.voltage_domain.voltage                       1                       # Voltage in Volts (Volt)
system.workload.inst.arm                            0                       # number of arm instructions executed (Count)
system.workload.inst.quiesce                        0                       # number of quiesce instructions executed (Count)

---------- End Simulation Statistics   ----------
