
---------- Begin Simulation Statistics ----------
simSeconds                                   0.065185                       # Number of seconds simulated (Second)
simTicks                                  65184716500                       # Number of ticks simulated (Tick)
finalTick                                 65184716500                       # Number of ticks from beginning of simulation (restored from checkpoints and never reset) (Tick)
simFreq                                  1000000000000                       # The number of ticks per simulated second ((Tick/Second))
hostSeconds                                    493.42                       # Real time elapsed on the host (Second)
hostTickRate                                132109066                       # The number of ticks simulated per host second (ticks/s) ((Tick/Second))
hostMemory                                     681508                       # Number of bytes of host memory used (Byte)
simInsts                                    311651592                       # Number of instructions simulated (Count)
simOps                                      323651248                       # Number of ops (including micro ops) simulated (Count)
hostInstRate                                   631620                       # Simulator instruction rate (inst/s) ((Count/Second))
hostOpRate                                     655940                       # Simulator op (including micro ops) rate (op/s) ((Count/Second))
system.clk_domain.clock                          1000                       # Clock period in ticks (Tick)
system.cpu.numCycles                        130369434                       # Number of cpu cycles simulated (Cycle)
system.cpu.numWorkItemsStarted                      0                       # Number of work items this cpu started (Count)
system.cpu.numWorkItemsCompleted                    0                       # Number of work items this cpu completed (Count)
system.cpu.instsAdded                       335243186                       # Number of instructions added to the IQ (excludes non-spec) (Count)
system.cpu.nonSpecInstsAdded                   196984                       # Number of non-speculative instructions added to the IQ (Count)
system.cpu.instsIssued                      334338380                       # Number of instructions issued (Count)
system.cpu.squashedInstsIssued                 316988                       # Number of squashed instructions issued (Count)
system.cpu.squashedInstsExamined             11788921                       # Number of squashed instructions iterated over during squash; mainly for profiling (Count)
system.cpu.squashedOperandsExamined           8519927                       # Number of squashed operands that are examined and possibly removed from graph (Count)
system.cpu.squashedNonSpecRemoved                 167                       # Number of squashed non-spec instructions that were removed (Count)
system.cpu.numIssuedDist::samples           127719758                       # Number of insts issued each cycle (Count)
system.cpu.numIssuedDist::mean               2.617750                       # Number of insts issued each cycle (Count)
system.cpu.numIssuedDist::stdev              1.935694                       # Number of insts issued each cycle (Count)
system.cpu.numIssuedDist::underflows                0      0.00%      0.00% # Number of insts issued each cycle (Count)
system.cpu.numIssuedDist::0                  26560938     20.80%     20.80% # Number of insts issued each cycle (Count)
system.cpu.numIssuedDist::1                   7853366      6.15%     26.95% # Number of insts issued each cycle (Count)
system.cpu.numIssuedDist::2                  28852298     22.59%     49.54% # Number of insts issued each cycle (Count)
system.cpu.numIssuedDist::3                  26910046     21.07%     70.61% # Number of insts issued each cycle (Count)
system.cpu.numIssuedDist::4                  18008927     14.10%     84.71% # Number of insts issued each cycle (Count)
system.cpu.numIssuedDist::5                   5058348      3.96%     88.67% # Number of insts issued each cycle (Count)
system.cpu.numIssuedDist::6                  11759419      9.21%     97.87% # Number of insts issued each cycle (Count)
system.cpu.numIssuedDist::7                   1565010      1.23%     99.10% # Number of insts issued each cycle (Count)
system.cpu.numIssuedDist::8                   1151406      0.90%    100.00% # Number of insts issued each cycle (Count)
system.cpu.numIssuedDist::overflows                 0      0.00%    100.00% # Number of insts issued each cycle (Count)
system.cpu.numIssuedDist::min_value                 0                       # Number of insts issued each cycle (Count)
system.cpu.numIssuedDist::max_value                 8                       # Number of insts issued each cycle (Count)
system.cpu.numIssuedDist::total             127719758                       # Number of insts issued each cycle (Count)
system.cpu.statFuBusy::No_OpClass                   0      0.00%      0.00% # attempts to use FU when none available (Count)
system.cpu.statFuBusy::IntAlu                  452619     14.92%     14.92% # attempts to use FU when none available (Count)
system.cpu.statFuBusy::IntMult                 248625      8.20%     23.12% # attempts to use FU when none available (Count)
system.cpu.statFuBusy::IntDiv                       0      0.00%     23.12% # attempts to use FU when none available (Count)
system.cpu.statFuBusy::FloatAdd                     0      0.00%     23.12% # attempts to use FU when none available (Count)
system.cpu.statFuBusy::FloatCmp                     0      0.00%     23.12% # attempts to use FU when none available (Count)
system.cpu.statFuBusy::FloatCvt                     0      0.00%     23.12% # attempts to use FU when none available (Count)
system.cpu.statFuBusy::FloatMult                    0      0.00%     23.12% # attempts to use FU when none available (Count)
system.cpu.statFuBusy::FloatMultAcc                 0      0.00%     23.12% # attempts to use FU when none available (Count)
system.cpu.statFuBusy::FloatDiv                     0      0.00%     23.12% # attempts to use FU when none available (Count)
system.cpu.statFuBusy::FloatMisc                    0      0.00%     23.12% # attempts to use FU when none available (Count)
system.cpu.statFuBusy::FloatSqrt                    0      0.00%     23.12% # attempts to use FU when none available (Count)
system.cpu.statFuBusy::SimdAdd                      0      0.00%     23.12% # attempts to use FU when none available (Count)
system.cpu.statFuBusy::SimdAddAcc                   0      0.00%     23.12% # attempts to use FU when none available (Count)
system.cpu.statFuBusy::SimdAlu                      1      0.00%     23.12% # attempts to use FU when none available (Count)
system.cpu.statFuBusy::SimdCmp                      6      0.00%     23.12% # attempts to use FU when none available (Count)
system.cpu.statFuBusy::SimdCvt                      0      0.00%     23.12% # attempts to use FU when none available (Count)
system.cpu.statFuBusy::SimdMisc                     0      0.00%     23.12% # attempts to use FU when none available (Count)
system.cpu.statFuBusy::SimdMult                     0      0.00%     23.12% # attempts to use FU when none available (Count)
system.cpu.statFuBusy::SimdMultAcc                  0      0.00%     23.12% # attempts to use FU when none available (Count)
system.cpu.statFuBusy::SimdShift                    0      0.00%     23.12% # attempts to use FU when none available (Count)
system.cpu.statFuBusy::SimdShiftAcc                 0      0.00%     23.12% # attempts to use FU when none available (Count)
system.cpu.statFuBusy::SimdDiv                      0      0.00%     23.12% # attempts to use FU when none available (Count)
system.cpu.statFuBusy::SimdSqrt                     0      0.00%     23.12% # attempts to use FU when none available (Count)
system.cpu.statFuBusy::SimdFloatAdd                 0      0.00%     23.12% # attempts to use FU when none available (Count)
system.cpu.statFuBusy::SimdFloatAlu                 0      0.00%     23.12% # attempts to use FU when none available (Count)
system.cpu.statFuBusy::SimdFloatCmp                 0      0.00%     23.12% # attempts to use FU when none available (Count)
system.cpu.statFuBusy::SimdFloatCvt                 0      0.00%     23.12% # attempts to use FU when none available (Count)
system.cpu.statFuBusy::SimdFloatDiv                 0      0.00%     23.12% # attempts to use FU when none available (Count)
system.cpu.statFuBusy::SimdFloatMisc                0      0.00%     23.12% # attempts to use FU when none available (Count)
system.cpu.statFuBusy::SimdFloatMult                0      0.00%     23.12% # attempts to use FU when none available (Count)
system.cpu.statFuBusy::SimdFloatMultAcc             0      0.00%     23.12% # attempts to use FU when none available (Count)
system.cpu.statFuBusy::SimdFloatSqrt                0      0.00%     23.12% # attempts to use FU when none available (Count)
system.cpu.statFuBusy::SimdReduceAdd                0      0.00%     23.12% # attempts to use FU when none available (Count)
system.cpu.statFuBusy::SimdReduceAlu                0      0.00%     23.12% # attempts to use FU when none available (Count)
system.cpu.statFuBusy::SimdReduceCmp                0      0.00%     23.12% # attempts to use FU when none available (Count)
system.cpu.statFuBusy::SimdFloatReduceAdd            0      0.00%     23.12% # attempts to use FU when none available (Count)
system.cpu.statFuBusy::SimdFloatReduceCmp            0      0.00%     23.12% # attempts to use FU when none available (Count)
system.cpu.statFuBusy::SimdAes                      0      0.00%     23.12% # attempts to use FU when none available (Count)
system.cpu.statFuBusy::SimdAesMix                   0      0.00%     23.12% # attempts to use FU when none available (Count)
system.cpu.statFuBusy::SimdSha1Hash                 0      0.00%     23.12% # attempts to use FU when none available (Count)
system.cpu.statFuBusy::SimdSha1Hash2                0      0.00%     23.12% # attempts to use FU when none available (Count)
system.cpu.statFuBusy::SimdSha256Hash               0      0.00%     23.12% # attempts to use FU when none available (Count)
system.cpu.statFuBusy::SimdSha256Hash2              0      0.00%     23.12% # attempts to use FU when none available (Count)
system.cpu.statFuBusy::SimdShaSigma2                0      0.00%     23.12% # attempts to use FU when none available (Count)
system.cpu.statFuBusy::SimdShaSigma3                0      0.00%     23.12% # attempts to use FU when none available (Count)
system.cpu.statFuBusy::SimdPredAlu                  0      0.00%     23.12% # attempts to use FU when none available (Count)
system.cpu.statFuBusy::MemRead                1191587     39.28%     62.40% # attempts to use FU when none available (Count)
system.cpu.statFuBusy::MemWrite               1140646     37.60%    100.00% # attempts to use FU when none available (Count)
system.cpu.statFuBusy::FloatMemRead                 0      0.00%    100.00% # attempts to use FU when none available (Count)
system.cpu.statFuBusy::FloatMemWrite                0      0.00%    100.00% # attempts to use FU when none available (Count)
system.cpu.statFuBusy::IprAccess                    0      0.00%    100.00% # attempts to use FU when none available (Count)
system.cpu.statFuBusy::InstPrefetch                 0      0.00%    100.00% # attempts to use FU when none available (Count)
system.cpu.statIssuedInstType_0::No_OpClass       131153      0.04%      0.04% # Number of instructions issued per FU type, per thread (Count)
system.cpu.statIssuedInstType_0::IntAlu     206476795     61.76%     61.80% # Number of instructions issued per FU type, per thread (Count)
system.cpu.statIssuedInstType_0::IntMult      1654448      0.49%     62.29% # Number of instructions issued per FU type, per thread (Count)
system.cpu.statIssuedInstType_0::IntDiv        330203      0.10%     62.39% # Number of instructions issued per FU type, per thread (Count)
system.cpu.statIssuedInstType_0::FloatAdd        89941      0.03%     62.42% # Number of instructions issued per FU type, per thread (Count)
system.cpu.statIssuedInstType_0::FloatCmp        70420      0.02%     62.44% # Number of instructions issued per FU type, per thread (Count)
system.cpu.statIssuedInstType_0::FloatCvt            0      0.00%     62.44% # Number of instructions issued per FU type, per thread (Count)
system.cpu.statIssuedInstType_0::FloatMult        86644      0.03%     62.46% # Number of instructions issued per FU type, per thread (Count)
system.cpu.statIssuedInstType_0::FloatMultAcc            0      0.00%     62.46% # Number of instructions issued per FU type, per thread (Count)
system.cpu.statIssuedInstType_0::FloatDiv            0      0.00%     62.46% # Number of instructions issued per FU type, per thread (Count)
system.cpu.statIssuedInstType_0::FloatMisc        75435      0.02%     62.49% # Number of instructions issued per FU type, per thread (Count)
system.cpu.statIssuedInstType_0::FloatSqrt            0      0.00%     62.49% # Number of instructions issued per FU type, per thread (Count)
system.cpu.statIssuedInstType_0::SimdAdd        65587      0.02%     62.51% # Number of instructions issued per FU type, per thread (Count)
system.cpu.statIssuedInstType_0::SimdAddAcc            0      0.00%     62.51% # Number of instructions issued per FU type, per thread (Count)
system.cpu.statIssuedInstType_0::SimdAlu       131145      0.04%     62.54% # Number of instructions issued per FU type, per thread (Count)
system.cpu.statIssuedInstType_0::SimdCmp       131140      0.04%     62.58% # Number of instructions issued per FU type, per thread (Count)
system.cpu.statIssuedInstType_0::SimdCvt            0      0.00%     62.58% # Number of instructions issued per FU type, per thread (Count)
system.cpu.statIssuedInstType_0::SimdMisc       124566      0.04%     62.62% # Number of instructions issued per FU type, per thread (Count)
system.cpu.statIssuedInstType_0::SimdMult            0      0.00%     62.62% # Number of instructions issued per FU type, per thread (Count)
system.cpu.statIssuedInstType_0::SimdMultAcc            0      0.00%     62.62% # Number of instructions issued per FU type, per thread (Count)
system.cpu.statIssuedInstType_0::SimdShift            0      0.00%     62.62% # Number of instructions issued per FU type, per thread (Count)
system.cpu.statIssuedInstType_0::SimdShiftAcc            0      0.00%     62.62% # Number of instructions issued per FU type, per thread (Count)
system.cpu.statIssuedInstType_0::SimdDiv            0      0.00%     62.62% # Number of instructions issued per FU type, per thread (Count)
system.cpu.statIssuedInstType_0::SimdSqrt            0      0.00%     62.62% # Number of instructions issued per FU type, per thread (Count)
system.cpu.statIssuedInstType_0::SimdFloatAdd            0      0.00%     62.62% # Number of instructions issued per FU type, per thread (Count)
system.cpu.statIssuedInstType_0::SimdFloatAlu            0      0.00%     62.62% # Number of instructions issued per FU type, per thread (Count)
system.cpu.statIssuedInstType_0::SimdFloatCmp            0      0.00%     62.62% # Number of instructions issued per FU type, per thread (Count)
system.cpu.statIssuedInstType_0::SimdFloatCvt            0      0.00%     62.62% # Number of instructions issued per FU type, per thread (Count)
system.cpu.statIssuedInstType_0::SimdFloatDiv            0      0.00%     62.62% # Number of instructions issued per FU type, per thread (Count)
system.cpu.statIssuedInstType_0::SimdFloatMisc            0      0.00%     62.62% # Number of instructions issued per FU type, per thread (Count)
system.cpu.statIssuedInstType_0::SimdFloatMult            0      0.00%     62.62% # Number of instructions issued per FU type, per thread (Count)
system.cpu.statIssuedInstType_0::SimdFloatMultAcc            0      0.00%     62.62% # Number of instructions issued per FU type, per thread (Count)
system.cpu.statIssuedInstType_0::SimdFloatSqrt            0      0.00%     62.62% # Number of instructions issued per FU type, per thread (Count)
system.cpu.statIssuedInstType_0::SimdReduceAdd            0      0.00%     62.62% # Number of instructions issued per FU type, per thread (Count)
system.cpu.statIssuedInstType_0::SimdReduceAlu            0      0.00%     62.62% # Number of instructions issued per FU type, per thread (Count)
system.cpu.statIssuedInstType_0::SimdReduceCmp            0      0.00%     62.62% # Number of instructions issued per FU type, per thread (Count)
system.cpu.statIssuedInstType_0::SimdFloatReduceAdd            0      0.00%     62.62% # Number of instructions issued per FU type, per thread (Count)
system.cpu.statIssuedInstType_0::SimdFloatReduceCmp            0      0.00%     62.62% # Number of instructions issued per FU type, per thread (Count)
system.cpu.statIssuedInstType_0::SimdAes            0      0.00%     62.62% # Number of instructions issued per FU type, per thread (Count)
system.cpu.statIssuedInstType_0::SimdAesMix            0      0.00%     62.62% # Number of instructions issued per FU type, per thread (Count)
system.cpu.statIssuedInstType_0::SimdSha1Hash            0      0.00%     62.62% # Number of instructions issued per FU type, per thread (Count)
system.cpu.statIssuedInstType_0::SimdSha1Hash2            0      0.00%     62.62% # Number of instructions issued per FU type, per thread (Count)
system.cpu.statIssuedInstType_0::SimdSha256Hash            0      0.00%     62.62% # Number of instructions issued per FU type, per thread (Count)
system.cpu.statIssuedInstType_0::SimdSha256Hash2            0      0.00%     62.62% # Number of instructions issued per FU type, per thread (Count)
system.cpu.statIssuedInstType_0::SimdShaSigma2            0      0.00%     62.62% # Number of instructions issued per FU type, per thread (Count)
system.cpu.statIssuedInstType_0::SimdShaSigma3            0      0.00%     62.62% # Number of instructions issued per FU type, per thread (Count)
system.cpu.statIssuedInstType_0::SimdPredAlu            0      0.00%     62.62% # Number of instructions issued per FU type, per thread (Count)
system.cpu.statIssuedInstType_0::MemRead     98180649     29.37%     91.99% # Number of instructions issued per FU type, per thread (Count)
system.cpu.statIssuedInstType_0::MemWrite     26790254      8.01%    100.00% # Number of instructions issued per FU type, per thread (Count)
system.cpu.statIssuedInstType_0::FloatMemRead            0      0.00%    100.00% # Number of instructions issued per FU type, per thread (Count)
system.cpu.statIssuedInstType_0::FloatMemWrite            0      0.00%    100.00% # Number of instructions issued per FU type, per thread (Count)
system.cpu.statIssuedInstType_0::IprAccess            0      0.00%    100.00% # Number of instructions issued per FU type, per thread (Count)
system.cpu.statIssuedInstType_0::InstPrefetch            0      0.00%    100.00% # Number of instructions issued per FU type, per thread (Count)
system.cpu.statIssuedInstType_0::total      334338380                       # Number of instructions issued per FU type, per thread (Count)
system.cpu.issueRate                         2.564546                       # Inst issue rate ((Count/Cycle))
system.cpu.fuBusy                             3033484                       # FU busy when requested (Count)
system.cpu.fuBusyRate                        0.009073                       # FU busy rate (busy events/executed inst) ((Count/Count))
system.cpu.intInstQueueReads                793748416                       # Number of integer instruction queue reads (Count)
system.cpu.intInstQueueWrites               343440118                       # Number of integer instruction queue writes (Count)
system.cpu.intInstQueueWakeupAccesses       328177639                       # Number of integer instruction queue wakeup accesses (Count)
system.cpu.fpInstQueueReads                         0                       # Number of floating instruction queue reads (Count)
system.cpu.fpInstQueueWrites                        0                       # Number of floating instruction queue writes (Count)
system.cpu.fpInstQueueWakeupAccesses                0                       # Number of floating instruction queue wakeup accesses (Count)
system.cpu.vecInstQueueReads                  5998574                       # Number of vector instruction queue reads (Count)
system.cpu.vecInstQueueWrites                 3856090                       # Number of vector instruction queue writes (Count)
system.cpu.vecInstQueueWakeupAccesses         2500203                       # Number of vector instruction queue wakeup accesses (Count)
system.cpu.intAluAccesses                   334184948                       # Number of integer alu accesses (Count)
system.cpu.fpAluAccesses                            0                       # Number of floating point alu accesses (Count)
system.cpu.vecAluAccesses                     3055763                       # Number of vector alu accesses (Count)
system.cpu.numInsts                         333366257                       # Number of executed instructions (Count)
system.cpu.numLoadInsts                      97912009                       # Number of load instructions executed (Count)
system.cpu.numSquashedInsts                    972123                       # Number of squashed instructions skipped in execute (Count)
system.cpu.numSwp                                   0                       # Number of swp insts executed (Count)
system.cpu.numNop                              131869                       # Number of nop insts executed (Count)
system.cpu.numRefs                          124437169                       # Number of memory reference insts executed (Count)
system.cpu.numBranches                       51350618                       # Number of branches executed (Count)
system.cpu.numStoreInsts                     26525160                       # Number of stores executed (Count)
system.cpu.numRate                           2.557089                       # Inst execution rate ((Count/Cycle))
system.cpu.timesIdled                          138477                       # Number of times that the entire CPU went into an idle state and unscheduled itself (Count)
system.cpu.idleCycles                         2649676                       # Total number of cycles that the CPU has spent unscheduled due to idling (Cycle)
system.cpu.committedInsts                   311651592                       # Number of Instructions Simulated (Count)
system.cpu.committedOps                     323651248                       # Number of Ops (including micro ops) Simulated (Count)
system.cpu.cpi                               0.418318                       # CPI: Cycles Per Instruction ((Cycle/Count))
system.cpu.totalCpi                          0.418318                       # CPI: Total CPI of All Threads ((Cycle/Count))
system.cpu.ipc                               2.390527                       # IPC: Instructions Per Cycle ((Count/Cycle))
system.cpu.totalIpc                          2.390527                       # IPC: Total IPC of All Threads ((Count/Cycle))
system.cpu.intRegfileReads                  378906102                       # Number of integer regfile reads (Count)
system.cpu.intRegfileWrites                 256609423                       # Number of integer regfile writes (Count)
system.cpu.vecRegfileReads                    2521967                       # number of vector regfile reads (Count)
system.cpu.vecRegfileWrites                   1134948                       # number of vector regfile writes (Count)
system.cpu.ccRegfileReads                    98700411                       # number of cc regfile reads (Count)
system.cpu.ccRegfileWrites                   98323636                       # number of cc regfile writes (Count)
system.cpu.miscRegfileReads                 660761063                       # number of misc regfile reads (Count)
system.cpu.miscRegfileWrites                   452005                       # number of misc regfile writes (Count)
system.cpu.MemDepUnit__0.insertedLoads       96443908                       # Number of loads inserted to the mem dependence unit. (Count)
system.cpu.MemDepUnit__0.insertedStores      27690136                       # Number of stores inserted to the mem dependence unit. (Count)
system.cpu.MemDepUnit__0.conflictingLoads     25253329                       # Number of conflicting loads. (Count)
system.cpu.MemDepUnit__0.conflictingStores      1944668                       # Number of conflicting stores. (Count)
system.cpu.MemDepUnit__1.insertedLoads              0                       # Number of loads inserted to the mem dependence unit. (Count)
system.cpu.MemDepUnit__1.insertedStores             0                       # Number of stores inserted to the mem dependence unit. (Count)
system.cpu.MemDepUnit__1.conflictingLoads            0                       # Number of conflicting loads. (Count)
system.cpu.MemDepUnit__1.conflictingStores            0                       # Number of conflicting stores. (Count)
system.cpu.MemDepUnit__2.insertedLoads              0                       # Number of loads inserted to the mem dependence unit. (Count)
system.cpu.MemDepUnit__2.insertedStores             0                       # Number of stores inserted to the mem dependence unit. (Count)
system.cpu.MemDepUnit__2.conflictingLoads            0                       # Number of conflicting loads. (Count)
system.cpu.MemDepUnit__2.conflictingStores            0                       # Number of conflicting stores. (Count)
system.cpu.MemDepUnit__3.insertedLoads              0                       # Number of loads inserted to the mem dependence unit. (Count)
system.cpu.MemDepUnit__3.insertedStores             0                       # Number of stores inserted to the mem dependence unit. (Count)
system.cpu.MemDepUnit__3.conflictingLoads            0                       # Number of conflicting loads. (Count)
system.cpu.MemDepUnit__3.conflictingStores            0                       # Number of conflicting stores. (Count)
system.cpu.branchPred.lookups                53115987                       # Number of BP lookups (Count)
system.cpu.branchPred.condPredicted          36834092                       # Number of conditional branches predicted (Count)
system.cpu.branchPred.condIncorrect            305790                       # Number of conditional branches incorrect (Count)
system.cpu.branchPred.BTBLookups             31903304                       # Number of BTB lookups (Count)
system.cpu.branchPred.BTBHits                31805017                       # Number of BTB hits (Count)
system.cpu.branchPred.BTBHitRatio            0.996919                       # BTB Hit Ratio (Ratio)
system.cpu.branchPred.RASUsed                 1487648                       # Number of times the RAS was used to get a target. (Count)
system.cpu.branchPred.RASIncorrect                 30                       # Number of incorrect RAS predictions. (Count)
system.cpu.branchPred.indirectLookups          268275                       # Number of indirect predictor lookups. (Count)
system.cpu.branchPred.indirectHits             267104                       # Number of indirect target hits. (Count)
system.cpu.branchPred.indirectMisses             1171                       # Number of indirect misses. (Count)
system.cpu.branchPred.indirectMispredicted          205                       # Number of mispredicted indirect branches. (Count)
system.cpu.commit.commitSquashedInsts        11804411                       # The number of squashed insts skipped by commit (Count)
system.cpu.commit.commitNonSpecStalls          196817                       # The number of times commit has been forced to stall to communicate backwards (Count)
system.cpu.commit.branchMispredicts            278848                       # The number of times a branch was mispredicted (Count)
system.cpu.commit.numCommittedDist::samples    126071331                       # Number of insts commited each cycle (Count)
system.cpu.commit.numCommittedDist::mean     2.568135                       # Number of insts commited each cycle (Count)
system.cpu.commit.numCommittedDist::stdev     2.950467                       # Number of insts commited each cycle (Count)
system.cpu.commit.numCommittedDist::underflows            0      0.00%      0.00% # Number of insts commited each cycle (Count)
system.cpu.commit.numCommittedDist::0        44203895     35.06%     35.06% # Number of insts commited each cycle (Count)
system.cpu.commit.numCommittedDist::1        30627527     24.29%     59.36% # Number of insts commited each cycle (Count)
system.cpu.commit.numCommittedDist::2         4880752      3.87%     63.23% # Number of insts commited each cycle (Count)
system.cpu.commit.numCommittedDist::3         2710535      2.15%     65.38% # Number of insts commited each cycle (Count)
system.cpu.commit.numCommittedDist::4        11826223      9.38%     74.76% # Number of insts commited each cycle (Count)
system.cpu.commit.numCommittedDist::5          888513      0.70%     75.46% # Number of insts commited each cycle (Count)
system.cpu.commit.numCommittedDist::6        11391246      9.04%     84.50% # Number of insts commited each cycle (Count)
system.cpu.commit.numCommittedDist::7         1188524      0.94%     85.44% # Number of insts commited each cycle (Count)
system.cpu.commit.numCommittedDist::8        18354116     14.56%    100.00% # Number of insts commited each cycle (Count)
system.cpu.commit.numCommittedDist::overflows            0      0.00%    100.00% # Number of insts commited each cycle (Count)
system.cpu.commit.numCommittedDist::min_value            0                       # Number of insts commited each cycle (Count)
system.cpu.commit.numCommittedDist::max_value            8                       # Number of insts commited each cycle (Count)
system.cpu.commit.numCommittedDist::total    126071331                       # Number of insts commited each cycle (Count)
system.cpu.commit.instsCommitted            311768509                       # Number of instructions committed (Count)
system.cpu.commit.opsCommitted              323768165                       # Number of ops (including micro ops) committed (Count)
system.cpu.commit.memRefs                   119524004                       # Number of memory references committed (Count)
system.cpu.commit.loads                      94404015                       # Number of loads committed (Count)
system.cpu.commit.amos                          98358                       # Number of atomic instructions committed (Count)
system.cpu.commit.membars                       98368                       # Number of memory barriers committed (Count)
system.cpu.commit.branches                   50459757                       # Number of branches committed (Count)
system.cpu.commit.vectorInstructions          2122592                       # Number of committed Vector instructions. (Count)
system.cpu.commit.floating                          0                       # Number of committed floating point instructions. (Count)
system.cpu.commit.integer                   280063898                       # Number of committed integer instructions. (Count)
system.cpu.commit.functionCalls               1351271                       # Number of function calls committed. (Count)
system.cpu.commit.committedInstType_0::No_OpClass       131142      0.04%      0.04% # Class of committed instruction (Count)
system.cpu.commit.committedInstType_0::IntAlu    201368938     62.20%     62.24% # Class of committed instruction (Count)
system.cpu.commit.committedInstType_0::IntMult      1653963      0.51%     62.75% # Class of committed instruction (Count)
system.cpu.commit.committedInstType_0::IntDiv       330144      0.10%     62.85% # Class of committed instruction (Count)
system.cpu.commit.committedInstType_0::FloatAdd        89941      0.03%     62.88% # Class of committed instruction (Count)
system.cpu.commit.committedInstType_0::FloatCmp        65536      0.02%     62.90% # Class of committed instruction (Count)
system.cpu.commit.committedInstType_0::FloatCvt            0      0.00%     62.90% # Class of committed instruction (Count)
system.cpu.commit.committedInstType_0::FloatMult        83387      0.03%     62.92% # Class of committed instruction (Count)
system.cpu.commit.committedInstType_0::FloatMultAcc            0      0.00%     62.92% # Class of committed instruction (Count)
system.cpu.commit.committedInstType_0::FloatDiv            0      0.00%     62.92% # Class of committed instruction (Count)
system.cpu.commit.committedInstType_0::FloatMisc        68814      0.02%     62.94% # Class of committed instruction (Count)
system.cpu.commit.committedInstType_0::FloatSqrt            0      0.00%     62.94% # Class of committed instruction (Count)
system.cpu.commit.committedInstType_0::SimdAdd        65560      0.02%     62.96% # Class of committed instruction (Count)
system.cpu.commit.committedInstType_0::SimdAddAcc            0      0.00%     62.96% # Class of committed instruction (Count)
system.cpu.commit.committedInstType_0::SimdAlu       131100      0.04%     63.00% # Class of committed instruction (Count)
system.cpu.commit.committedInstType_0::SimdCmp       131096      0.04%     63.04% # Class of committed instruction (Count)
system.cpu.commit.committedInstType_0::SimdCvt            0      0.00%     63.04% # Class of committed instruction (Count)
system.cpu.commit.committedInstType_0::SimdMisc       124540      0.04%     63.08% # Class of committed instruction (Count)
system.cpu.commit.committedInstType_0::SimdMult            0      0.00%     63.08% # Class of committed instruction (Count)
system.cpu.commit.committedInstType_0::SimdMultAcc            0      0.00%     63.08% # Class of committed instruction (Count)
system.cpu.commit.committedInstType_0::SimdShift            0      0.00%     63.08% # Class of committed instruction (Count)
system.cpu.commit.committedInstType_0::SimdShiftAcc            0      0.00%     63.08% # Class of committed instruction (Count)
system.cpu.commit.committedInstType_0::SimdDiv            0      0.00%     63.08% # Class of committed instruction (Count)
system.cpu.commit.committedInstType_0::SimdSqrt            0      0.00%     63.08% # Class of committed instruction (Count)
system.cpu.commit.committedInstType_0::SimdFloatAdd            0      0.00%     63.08% # Class of committed instruction (Count)
system.cpu.commit.committedInstType_0::SimdFloatAlu            0      0.00%     63.08% # Class of committed instruction (Count)
system.cpu.commit.committedInstType_0::SimdFloatCmp            0      0.00%     63.08% # Class of committed instruction (Count)
system.cpu.commit.committedInstType_0::SimdFloatCvt            0      0.00%     63.08% # Class of committed instruction (Count)
system.cpu.commit.committedInstType_0::SimdFloatDiv            0      0.00%     63.08% # Class of committed instruction (Count)
system.cpu.commit.committedInstType_0::SimdFloatMisc            0      0.00%     63.08% # Class of committed instruction (Count)
system.cpu.commit.committedInstType_0::SimdFloatMult            0      0.00%     63.08% # Class of committed instruction (Count)
system.cpu.commit.committedInstType_0::SimdFloatMultAcc            0      0.00%     63.08% # Class of committed instruction (Count)
system.cpu.commit.committedInstType_0::SimdFloatSqrt            0      0.00%     63.08% # Class of committed instruction (Count)
system.cpu.commit.committedInstType_0::SimdReduceAdd            0      0.00%     63.08% # Class of committed instruction (Count)
system.cpu.commit.committedInstType_0::SimdReduceAlu            0      0.00%     63.08% # Class of committed instruction (Count)
system.cpu.commit.committedInstType_0::SimdReduceCmp            0      0.00%     63.08% # Class of committed instruction (Count)
system.cpu.commit.committedInstType_0::SimdFloatReduceAdd            0      0.00%     63.08% # Class of committed instruction (Count)
system.cpu.commit.committedInstType_0::SimdFloatReduceCmp            0      0.00%     63.08% # Class of committed instruction (Count)
system.cpu.commit.committedInstType_0::SimdAes            0      0.00%     63.08% # Class of committed instruction (Count)
system.cpu.commit.committedInstType_0::SimdAesMix            0      0.00%     63.08% # Class of committed instruction (Count)
system.cpu.commit.committedInstType_0::SimdSha1Hash            0      0.00%     63.08% # Class of committed instruction (Count)
system.cpu.commit.committedInstType_0::SimdSha1Hash2            0      0.00%     63.08% # Class of committed instruction (Count)
system.cpu.commit.committedInstType_0::SimdSha256Hash            0      0.00%     63.08% # Class of committed instruction (Count)
system.cpu.commit.committedInstType_0::SimdSha256Hash2            0      0.00%     63.08% # Class of committed instruction (Count)
system.cpu.commit.committedInstType_0::SimdShaSigma2            0      0.00%     63.08% # Class of committed instruction (Count)
system.cpu.commit.committedInstType_0::SimdShaSigma3            0      0.00%     63.08% # Class of committed instruction (Count)
system.cpu.commit.committedInstType_0::SimdPredAlu            0      0.00%     63.08% # Class of committed instruction (Count)
system.cpu.commit.committedInstType_0::MemRead     94404015     29.16%     92.24% # Class of committed instruction (Count)
system.cpu.commit.committedInstType_0::MemWrite     25119989      7.76%    100.00% # Class of committed instruction (Count)
system.cpu.commit.committedInstType_0::FloatMemRead            0      0.00%    100.00% # Class of committed instruction (Count)
system.cpu.commit.committedInstType_0::FloatMemWrite            0      0.00%    100.00% # Class of committed instruction (Count)
system.cpu.commit.committedInstType_0::IprAccess            0      0.00%    100.00% # Class of committed instruction (Count)
system.cpu.commit.committedInstType_0::InstPrefetch            0      0.00%    100.00% # Class of committed instruction (Count)
system.cpu.commit.committedInstType_0::total    323768165                       # Class of committed instruction (Count)
system.cpu.commit.commitEligibleSamples      18354116                       # number cycles where commit BW limit reached (Cycle)
system.cpu.dcache.demandHits::cpu.data       85917917                       # number of demand (read+write) hits (Count)
system.cpu.dcache.demandHits::total          85917917                       # number of demand (read+write) hits (Count)
system.cpu.dcache.overallHits::cpu.data      86020343                       # number of overall hits (Count)
system.cpu.dcache.overallHits::total         86020343                       # number of overall hits (Count)
system.cpu.dcache.demandMisses::cpu.data       145962                       # number of demand (read+write) misses (Count)
system.cpu.dcache.demandMisses::total          145962                       # number of demand (read+write) misses (Count)
system.cpu.dcache.overallMisses::cpu.data       145968                       # number of overall misses (Count)
system.cpu.dcache.overallMisses::total         145968                       # number of overall misses (Count)
system.cpu.dcache.demandMissLatency::cpu.data   9588518630                       # number of demand (read+write) miss ticks (Tick)
system.cpu.dcache.demandMissLatency::total   9588518630                       # number of demand (read+write) miss ticks (Tick)
system.cpu.dcache.overallMissLatency::cpu.data   9588518630                       # number of overall miss ticks (Tick)
system.cpu.dcache.overallMissLatency::total   9588518630                       # number of overall miss ticks (Tick)
system.cpu.dcache.demandAccesses::cpu.data     86063879                       # number of demand (read+write) accesses (Count)
system.cpu.dcache.demandAccesses::total      86063879                       # number of demand (read+write) accesses (Count)
system.cpu.dcache.overallAccesses::cpu.data     86166311                       # number of overall (read+write) accesses (Count)
system.cpu.dcache.overallAccesses::total     86166311                       # number of overall (read+write) accesses (Count)
system.cpu.dcache.demandMissRate::cpu.data     0.001696                       # miss rate for demand accesses (Ratio)
system.cpu.dcache.demandMissRate::total      0.001696                       # miss rate for demand accesses (Ratio)
system.cpu.dcache.overallMissRate::cpu.data     0.001694                       # miss rate for overall accesses (Ratio)
system.cpu.dcache.overallMissRate::total     0.001694                       # miss rate for overall accesses (Ratio)
system.cpu.dcache.demandAvgMissLatency::cpu.data 65691.883024                       # average overall miss latency ((Cycle/Count))
system.cpu.dcache.demandAvgMissLatency::total 65691.883024                       # average overall miss latency ((Cycle/Count))
system.cpu.dcache.overallAvgMissLatency::cpu.data 65689.182766                       # average overall miss latency ((Cycle/Count))
system.cpu.dcache.overallAvgMissLatency::total 65689.182766                       # average overall miss latency ((Cycle/Count))
system.cpu.dcache.blockedCycles::no_mshrs       692080                       # number of cycles access was blocked (Cycle)
system.cpu.dcache.blockedCycles::no_targets          133                       # number of cycles access was blocked (Cycle)
system.cpu.dcache.blockedCauses::no_mshrs        17266                       # number of times access was blocked (Count)
system.cpu.dcache.blockedCauses::no_targets            1                       # number of times access was blocked (Count)
system.cpu.dcache.avgBlocked::no_mshrs      40.083401                       # average number of cycles each access was blocked ((Cycle/Count))
system.cpu.dcache.avgBlocked::no_targets          133                       # average number of cycles each access was blocked ((Cycle/Count))
system.cpu.dcache.writebacks::writebacks        18439                       # number of writebacks (Count)
system.cpu.dcache.writebacks::total             18439                       # number of writebacks (Count)
system.cpu.dcache.demandMshrHits::cpu.data       110783                       # number of demand (read+write) MSHR hits (Count)
system.cpu.dcache.demandMshrHits::total        110783                       # number of demand (read+write) MSHR hits (Count)
system.cpu.dcache.overallMshrHits::cpu.data       110783                       # number of overall MSHR hits (Count)
system.cpu.dcache.overallMshrHits::total       110783                       # number of overall MSHR hits (Count)
system.cpu.dcache.demandMshrMisses::cpu.data        35179                       # number of demand (read+write) MSHR misses (Count)
system.cpu.dcache.demandMshrMisses::total        35179                       # number of demand (read+write) MSHR misses (Count)
system.cpu.dcache.overallMshrMisses::cpu.data        35185                       # number of overall MSHR misses (Count)
system.cpu.dcache.overallMshrMisses::total        35185                       # number of overall MSHR misses (Count)
system.cpu.dcache.demandMshrMissLatency::cpu.data   2496619929                       # number of demand (read+write) MSHR miss ticks (Tick)
system.cpu.dcache.demandMshrMissLatency::total   2496619929                       # number of demand (read+write) MSHR miss ticks (Tick)
system.cpu.dcache.overallMshrMissLatency::cpu.data   2497028429                       # number of overall MSHR miss ticks (Tick)
system.cpu.dcache.overallMshrMissLatency::total   2497028429                       # number of overall MSHR miss ticks (Tick)
system.cpu.dcache.demandMshrMissRate::cpu.data     0.000409                       # mshr miss ratio for demand accesses (Ratio)
system.cpu.dcache.demandMshrMissRate::total     0.000409                       # mshr miss ratio for demand accesses (Ratio)
system.cpu.dcache.overallMshrMissRate::cpu.data     0.000408                       # mshr miss ratio for overall accesses (Ratio)
system.cpu.dcache.overallMshrMissRate::total     0.000408                       # mshr miss ratio for overall accesses (Ratio)
system.cpu.dcache.demandAvgMshrMissLatency::cpu.data 70969.042014                       # average overall mshr miss latency ((Cycle/Count))
system.cpu.dcache.demandAvgMshrMissLatency::total 70969.042014                       # average overall mshr miss latency ((Cycle/Count))
system.cpu.dcache.overallAvgMshrMissLatency::cpu.data 70968.549922                       # average overall mshr miss latency ((Cycle/Count))
system.cpu.dcache.overallAvgMshrMissLatency::total 70968.549922                       # average overall mshr miss latency ((Cycle/Count))
system.cpu.dcache.replacements                  33140                       # number of replacements (Count)
system.cpu.dcache.LoadLockedReq.hits::cpu.data           42                       # number of LoadLockedReq hits (Count)
system.cpu.dcache.LoadLockedReq.hits::total           42                       # number of LoadLockedReq hits (Count)
system.cpu.dcache.LoadLockedReq.misses::cpu.data            6                       # number of LoadLockedReq misses (Count)
system.cpu.dcache.LoadLockedReq.misses::total            6                       # number of LoadLockedReq misses (Count)
system.cpu.dcache.LoadLockedReq.missLatency::cpu.data       420500                       # number of LoadLockedReq miss ticks (Tick)
system.cpu.dcache.LoadLockedReq.missLatency::total       420500                       # number of LoadLockedReq miss ticks (Tick)
system.cpu.dcache.LoadLockedReq.accesses::cpu.data           48                       # number of LoadLockedReq accesses(hits+misses) (Count)
system.cpu.dcache.LoadLockedReq.accesses::total           48                       # number of LoadLockedReq accesses(hits+misses) (Count)
system.cpu.dcache.LoadLockedReq.missRate::cpu.data     0.125000                       # miss rate for LoadLockedReq accesses (Ratio)
system.cpu.dcache.LoadLockedReq.missRate::total     0.125000                       # miss rate for LoadLockedReq accesses (Ratio)
system.cpu.dcache.LoadLockedReq.avgMissLatency::cpu.data 70083.333333                       # average LoadLockedReq miss latency ((Tick/Count))
system.cpu.dcache.LoadLockedReq.avgMissLatency::total 70083.333333                       # average LoadLockedReq miss latency ((Tick/Count))
system.cpu.dcache.LoadLockedReq.mshrHits::cpu.data            3                       # number of LoadLockedReq MSHR hits (Count)
system.cpu.dcache.LoadLockedReq.mshrHits::total            3                       # number of LoadLockedReq MSHR hits (Count)
system.cpu.dcache.LoadLockedReq.mshrMisses::cpu.data            3                       # number of LoadLockedReq MSHR misses (Count)
system.cpu.dcache.LoadLockedReq.mshrMisses::total            3                       # number of LoadLockedReq MSHR misses (Count)
system.cpu.dcache.LoadLockedReq.mshrMissLatency::cpu.data       269500                       # number of LoadLockedReq MSHR miss ticks (Tick)
system.cpu.dcache.LoadLockedReq.mshrMissLatency::total       269500                       # number of LoadLockedReq MSHR miss ticks (Tick)
system.cpu.dcache.LoadLockedReq.mshrMissRate::cpu.data     0.062500                       # mshr miss rate for LoadLockedReq accesses (Ratio)
system.cpu.dcache.LoadLockedReq.mshrMissRate::total     0.062500                       # mshr miss rate for LoadLockedReq accesses (Ratio)
system.cpu.dcache.LoadLockedReq.avgMshrMissLatency::cpu.data 89833.333333                       # average LoadLockedReq mshr miss latency ((Tick/Count))
system.cpu.dcache.LoadLockedReq.avgMshrMissLatency::total 89833.333333                       # average LoadLockedReq mshr miss latency ((Tick/Count))
system.cpu.dcache.ReadReq.hits::cpu.data     60969527                       # number of ReadReq hits (Count)
system.cpu.dcache.ReadReq.hits::total        60969527                       # number of ReadReq hits (Count)
system.cpu.dcache.ReadReq.misses::cpu.data        72724                       # number of ReadReq misses (Count)
system.cpu.dcache.ReadReq.misses::total         72724                       # number of ReadReq misses (Count)
system.cpu.dcache.ReadReq.missLatency::cpu.data   4905831000                       # number of ReadReq miss ticks (Tick)
system.cpu.dcache.ReadReq.missLatency::total   4905831000                       # number of ReadReq miss ticks (Tick)
system.cpu.dcache.ReadReq.accesses::cpu.data     61042251                       # number of ReadReq accesses(hits+misses) (Count)
system.cpu.dcache.ReadReq.accesses::total     61042251                       # number of ReadReq accesses(hits+misses) (Count)
system.cpu.dcache.ReadReq.missRate::cpu.data     0.001191                       # miss rate for ReadReq accesses (Ratio)
system.cpu.dcache.ReadReq.missRate::total     0.001191                       # miss rate for ReadReq accesses (Ratio)
system.cpu.dcache.ReadReq.avgMissLatency::cpu.data 67458.211870                       # average ReadReq miss latency ((Tick/Count))
system.cpu.dcache.ReadReq.avgMissLatency::total 67458.211870                       # average ReadReq miss latency ((Tick/Count))
system.cpu.dcache.ReadReq.mshrHits::cpu.data        54027                       # number of ReadReq MSHR hits (Count)
system.cpu.dcache.ReadReq.mshrHits::total        54027                       # number of ReadReq MSHR hits (Count)
system.cpu.dcache.ReadReq.mshrMisses::cpu.data        18697                       # number of ReadReq MSHR misses (Count)
system.cpu.dcache.ReadReq.mshrMisses::total        18697                       # number of ReadReq MSHR misses (Count)
system.cpu.dcache.ReadReq.mshrMissLatency::cpu.data   1403999500                       # number of ReadReq MSHR miss ticks (Tick)
system.cpu.dcache.ReadReq.mshrMissLatency::total   1403999500                       # number of ReadReq MSHR miss ticks (Tick)
system.cpu.dcache.ReadReq.mshrMissRate::cpu.data     0.000306                       # mshr miss rate for ReadReq accesses (Ratio)
system.cpu.dcache.ReadReq.mshrMissRate::total     0.000306                       # mshr miss rate for ReadReq accesses (Ratio)
system.cpu.dcache.ReadReq.avgMshrMissLatency::cpu.data 75092.234048                       # average ReadReq mshr miss latency ((Tick/Count))
system.cpu.dcache.ReadReq.avgMshrMissLatency::total 75092.234048                       # average ReadReq mshr miss latency ((Tick/Count))
system.cpu.dcache.SoftPFReq.hits::cpu.data       102426                       # number of SoftPFReq hits (Count)
system.cpu.dcache.SoftPFReq.hits::total        102426                       # number of SoftPFReq hits (Count)
system.cpu.dcache.SoftPFReq.misses::cpu.data            6                       # number of SoftPFReq misses (Count)
system.cpu.dcache.SoftPFReq.misses::total            6                       # number of SoftPFReq misses (Count)
system.cpu.dcache.SoftPFReq.accesses::cpu.data       102432                       # number of SoftPFReq accesses(hits+misses) (Count)
system.cpu.dcache.SoftPFReq.accesses::total       102432                       # number of SoftPFReq accesses(hits+misses) (Count)
system.cpu.dcache.SoftPFReq.missRate::cpu.data     0.000059                       # miss rate for SoftPFReq accesses (Ratio)
system.cpu.dcache.SoftPFReq.missRate::total     0.000059                       # miss rate for SoftPFReq accesses (Ratio)
system.cpu.dcache.SoftPFReq.mshrMisses::cpu.data            6                       # number of SoftPFReq MSHR misses (Count)
system.cpu.dcache.SoftPFReq.mshrMisses::total            6                       # number of SoftPFReq MSHR misses (Count)
system.cpu.dcache.SoftPFReq.mshrMissLatency::cpu.data       408500                       # number of SoftPFReq MSHR miss ticks (Tick)
system.cpu.dcache.SoftPFReq.mshrMissLatency::total       408500                       # number of SoftPFReq MSHR miss ticks (Tick)
system.cpu.dcache.SoftPFReq.mshrMissRate::cpu.data     0.000059                       # mshr miss rate for SoftPFReq accesses (Ratio)
system.cpu.dcache.SoftPFReq.mshrMissRate::total     0.000059                       # mshr miss rate for SoftPFReq accesses (Ratio)
system.cpu.dcache.SoftPFReq.avgMshrMissLatency::cpu.data 68083.333333                       # average SoftPFReq mshr miss latency ((Tick/Count))
system.cpu.dcache.SoftPFReq.avgMshrMissLatency::total 68083.333333                       # average SoftPFReq mshr miss latency ((Tick/Count))
system.cpu.dcache.StoreCondReq.hits::cpu.data           10                       # number of StoreCondReq hits (Count)
system.cpu.dcache.StoreCondReq.hits::total           10                       # number of StoreCondReq hits (Count)
system.cpu.dcache.StoreCondReq.accesses::cpu.data           10                       # number of StoreCondReq accesses(hits+misses) (Count)
system.cpu.dcache.StoreCondReq.accesses::total           10                       # number of StoreCondReq accesses(hits+misses) (Count)
system.cpu.dcache.SwapReq.hits::cpu.data        98358                       # number of SwapReq hits (Count)
system.cpu.dcache.SwapReq.hits::total           98358                       # number of SwapReq hits (Count)
system.cpu.dcache.SwapReq.accesses::cpu.data        98358                       # number of SwapReq accesses(hits+misses) (Count)
system.cpu.dcache.SwapReq.accesses::total        98358                       # number of SwapReq accesses(hits+misses) (Count)
system.cpu.dcache.WriteLineReq.misses::cpu.data         2054                       # number of WriteLineReq misses (Count)
system.cpu.dcache.WriteLineReq.misses::total         2054                       # number of WriteLineReq misses (Count)
system.cpu.dcache.WriteLineReq.missLatency::cpu.data     40639935                       # number of WriteLineReq miss ticks (Tick)
system.cpu.dcache.WriteLineReq.missLatency::total     40639935                       # number of WriteLineReq miss ticks (Tick)
system.cpu.dcache.WriteLineReq.accesses::cpu.data         2054                       # number of WriteLineReq accesses(hits+misses) (Count)
system.cpu.dcache.WriteLineReq.accesses::total         2054                       # number of WriteLineReq accesses(hits+misses) (Count)
system.cpu.dcache.WriteLineReq.missRate::cpu.data            1                       # miss rate for WriteLineReq accesses (Ratio)
system.cpu.dcache.WriteLineReq.missRate::total            1                       # miss rate for WriteLineReq accesses (Ratio)
system.cpu.dcache.WriteLineReq.avgMissLatency::cpu.data 19785.752191                       # average WriteLineReq miss latency ((Tick/Count))
system.cpu.dcache.WriteLineReq.avgMissLatency::total 19785.752191                       # average WriteLineReq miss latency ((Tick/Count))
system.cpu.dcache.WriteLineReq.mshrMisses::cpu.data         2054                       # number of WriteLineReq MSHR misses (Count)
system.cpu.dcache.WriteLineReq.mshrMisses::total         2054                       # number of WriteLineReq MSHR misses (Count)
system.cpu.dcache.WriteLineReq.mshrMissLatency::cpu.data     38585935                       # number of WriteLineReq MSHR miss ticks (Tick)
system.cpu.dcache.WriteLineReq.mshrMissLatency::total     38585935                       # number of WriteLineReq MSHR miss ticks (Tick)
system.cpu.dcache.WriteLineReq.mshrMissRate::cpu.data            1                       # mshr miss rate for WriteLineReq accesses (Ratio)
system.cpu.dcache.WriteLineReq.mshrMissRate::total            1                       # mshr miss rate for WriteLineReq accesses (Ratio)
system.cpu.dcache.WriteLineReq.avgMshrMissLatency::cpu.data 18785.752191                       # average WriteLineReq mshr miss latency ((Tick/Count))
system.cpu.dcache.WriteLineReq.avgMshrMissLatency::total 18785.752191                       # average WriteLineReq mshr miss latency ((Tick/Count))
system.cpu.dcache.WriteReq.hits::cpu.data     24948390                       # number of WriteReq hits (Count)
system.cpu.dcache.WriteReq.hits::total       24948390                       # number of WriteReq hits (Count)
system.cpu.dcache.WriteReq.misses::cpu.data        71184                       # number of WriteReq misses (Count)
system.cpu.dcache.WriteReq.misses::total        71184                       # number of WriteReq misses (Count)
system.cpu.dcache.WriteReq.missLatency::cpu.data   4642047695                       # number of WriteReq miss ticks (Tick)
system.cpu.dcache.WriteReq.missLatency::total   4642047695                       # number of WriteReq miss ticks (Tick)
system.cpu.dcache.WriteReq.accesses::cpu.data     25019574                       # number of WriteReq accesses(hits+misses) (Count)
system.cpu.dcache.WriteReq.accesses::total     25019574                       # number of WriteReq accesses(hits+misses) (Count)
system.cpu.dcache.WriteReq.missRate::cpu.data     0.002845                       # miss rate for WriteReq accesses (Ratio)
system.cpu.dcache.WriteReq.missRate::total     0.002845                       # miss rate for WriteReq accesses (Ratio)
system.cpu.dcache.WriteReq.avgMissLatency::cpu.data 65211.953459                       # average WriteReq miss latency ((Tick/Count))
system.cpu.dcache.WriteReq.avgMissLatency::total 65211.953459                       # average WriteReq miss latency ((Tick/Count))
system.cpu.dcache.WriteReq.mshrHits::cpu.data        56756                       # number of WriteReq MSHR hits (Count)
system.cpu.dcache.WriteReq.mshrHits::total        56756                       # number of WriteReq MSHR hits (Count)
system.cpu.dcache.WriteReq.mshrMisses::cpu.data        14428                       # number of WriteReq MSHR misses (Count)
system.cpu.dcache.WriteReq.mshrMisses::total        14428                       # number of WriteReq MSHR misses (Count)
system.cpu.dcache.WriteReq.mshrMissLatency::cpu.data   1054034494                       # number of WriteReq MSHR miss ticks (Tick)
system.cpu.dcache.WriteReq.mshrMissLatency::total   1054034494                       # number of WriteReq MSHR miss ticks (Tick)
system.cpu.dcache.WriteReq.mshrMissRate::cpu.data     0.000577                       # mshr miss rate for WriteReq accesses (Ratio)
system.cpu.dcache.WriteReq.mshrMissRate::total     0.000577                       # mshr miss rate for WriteReq accesses (Ratio)
system.cpu.dcache.WriteReq.avgMshrMissLatency::cpu.data 73054.788883                       # average WriteReq mshr miss latency ((Tick/Count))
system.cpu.dcache.WriteReq.avgMshrMissLatency::total 73054.788883                       # average WriteReq mshr miss latency ((Tick/Count))
system.cpu.dcache.power_state.pwrStateResidencyTicks::UNDEFINED  65184716500                       # Cumulative time (in ticks) in various power states (Tick)
system.cpu.dcache.tags.tagsInUse          2009.152488                       # Average ticks per tags in use ((Tick/Count))
system.cpu.dcache.tags.totalRefs             86153941                       # Total number of references to valid blocks. (Count)
system.cpu.dcache.tags.sampledRefs              35188                       # Sample count of references to valid blocks. (Count)
system.cpu.dcache.tags.avgRefs            2448.389820                       # Average number of references to valid blocks. ((Count/Count))
system.cpu.dcache.tags.warmupTick              145000                       # The tick when the warmup percentage was hit. (Tick)
system.cpu.dcache.tags.occupancies::cpu.data  2009.152488                       # Average occupied blocks per tick, per requestor ((Count/Tick))
system.cpu.dcache.tags.avgOccs::cpu.data     0.981031                       # Average percentage of cache occupancy ((Ratio/Tick))
system.cpu.dcache.tags.avgOccs::total        0.981031                       # Average percentage of cache occupancy ((Ratio/Tick))
system.cpu.dcache.tags.occupanciesTaskId::1024         2048                       # Occupied blocks per task id (Count)
system.cpu.dcache.tags.ageTaskId_1024::0           75                       # Occupied blocks per task id, per block age (Count)
system.cpu.dcache.tags.ageTaskId_1024::1            8                       # Occupied blocks per task id, per block age (Count)
system.cpu.dcache.tags.ageTaskId_1024::2           96                       # Occupied blocks per task id, per block age (Count)
system.cpu.dcache.tags.ageTaskId_1024::3          879                       # Occupied blocks per task id, per block age (Count)
system.cpu.dcache.tags.ageTaskId_1024::4          990                       # Occupied blocks per task id, per block age (Count)
system.cpu.dcache.tags.ratioOccsTaskId::1024            1                       # Ratio of occupied blocks and all blocks, per task id (Ratio)
system.cpu.dcache.tags.tagAccesses          172564642                       # Number of tag accesses (Count)
system.cpu.dcache.tags.dataAccesses         172564642                       # Number of data accesses (Count)
system.cpu.dcache.tags.power_state.pwrStateResidencyTicks::UNDEFINED  65184716500                       # Cumulative time (in ticks) in various power states (Tick)
system.cpu.decode.idleCycles                 49125682                       # Number of cycles decode is idle (Cycle)
system.cpu.decode.blockedCycles              13148972                       # Number of cycles decode is blocked (Cycle)
system.cpu.decode.runCycles                  62295831                       # Number of cycles decode is running (Cycle)
system.cpu.decode.unblockCycles               2803272                       # Number of cycles decode is unblocking (Cycle)
system.cpu.decode.squashCycles                 346001                       # Number of cycles decode is squashing (Cycle)
system.cpu.decode.branchResolved             31637738                       # Number of times decode resolved a branch (Count)
system.cpu.decode.branchMispred                 26950                       # Number of times decode detected a branch misprediction (Count)
system.cpu.decode.decodedInsts              338375965                       # Number of instructions handled by decode (Count)
system.cpu.decode.squashedInsts                132776                       # Number of squashed instructions handled by decode (Count)
system.cpu.fetch.icacheStallCycles           52857943                       # Number of cycles fetch is stalled on an Icache miss (Cycle)
system.cpu.fetch.insts                      326742287                       # Number of instructions fetch has processed (Count)
system.cpu.fetch.branches                    53115987                       # Number of branches that fetch encountered (Count)
system.cpu.fetch.predictedBranches           33559769                       # Number of branches that fetch has predicted taken (Count)
system.cpu.fetch.cycles                      74488751                       # Number of cycles fetch has run and was not squashing or blocked (Cycle)
system.cpu.fetch.squashCycles                  745886                       # Number of cycles fetch has spent squashing (Cycle)
system.cpu.fetch.miscStallCycles                   21                       # Number of cycles fetch has spent waiting on interrupts, or bad addresses, or out of MSHRs (Cycle)
system.cpu.fetch.icacheWaitRetryStallCycles          100                       # Number of stall cycles due to full MSHR (Cycle)
system.cpu.fetch.cacheLines                  48982656                       # Number of cache lines fetched (Count)
system.cpu.fetch.icacheSquashes                145503                       # Number of outstanding Icache misses that were squashed (Count)
system.cpu.fetch.nisnDist::samples          127719758                       # Number of instructions fetched each cycle (Total) (Count)
system.cpu.fetch.nisnDist::mean              2.678080                       # Number of instructions fetched each cycle (Total) (Count)
system.cpu.fetch.nisnDist::stdev             3.187323                       # Number of instructions fetched each cycle (Total) (Count)
system.cpu.fetch.nisnDist::underflows               0      0.00%      0.00% # Number of instructions fetched each cycle (Total) (Count)
system.cpu.fetch.nisnDist::0                 59957510     46.94%     46.94% # Number of instructions fetched each cycle (Total) (Count)
system.cpu.fetch.nisnDist::1                 13483781     10.56%     57.50% # Number of instructions fetched each cycle (Total) (Count)
system.cpu.fetch.nisnDist::2                  3055601      2.39%     59.89% # Number of instructions fetched each cycle (Total) (Count)
system.cpu.fetch.nisnDist::3                  2418638      1.89%     61.79% # Number of instructions fetched each cycle (Total) (Count)
system.cpu.fetch.nisnDist::4                 12721503      9.96%     71.75% # Number of instructions fetched each cycle (Total) (Count)
system.cpu.fetch.nisnDist::5                  2287391      1.79%     73.54% # Number of instructions fetched each cycle (Total) (Count)
system.cpu.fetch.nisnDist::6                  2408391      1.89%     75.43% # Number of instructions fetched each cycle (Total) (Count)
system.cpu.fetch.nisnDist::7                 12675971      9.92%     85.35% # Number of instructions fetched each cycle (Total) (Count)
system.cpu.fetch.nisnDist::8                 18710972     14.65%    100.00% # Number of instructions fetched each cycle (Total) (Count)
system.cpu.fetch.nisnDist::overflows                0      0.00%    100.00% # Number of instructions fetched each cycle (Total) (Count)
system.cpu.fetch.nisnDist::min_value                0                       # Number of instructions fetched each cycle (Total) (Count)
system.cpu.fetch.nisnDist::max_value                8                       # Number of instructions fetched each cycle (Total) (Count)
system.cpu.fetch.nisnDist::total            127719758                       # Number of instructions fetched each cycle (Total) (Count)
system.cpu.fetch.branchRate                  0.407427                       # Number of branch fetches per cycle (Ratio)
system.cpu.fetch.rate                        2.506280                       # Number of inst fetches per cycle ((Count/Cycle))
system.cpu.icache.demandHits::cpu.inst       48835711                       # number of demand (read+write) hits (Count)
system.cpu.icache.demandHits::total          48835711                       # number of demand (read+write) hits (Count)
system.cpu.icache.overallHits::cpu.inst      48835711                       # number of overall hits (Count)
system.cpu.icache.overallHits::total         48835711                       # number of overall hits (Count)
system.cpu.icache.demandMisses::cpu.inst       146944                       # number of demand (read+write) misses (Count)
system.cpu.icache.demandMisses::total          146944                       # number of demand (read+write) misses (Count)
system.cpu.icache.overallMisses::cpu.inst       146944                       # number of overall misses (Count)
system.cpu.icache.overallMisses::total         146944                       # number of overall misses (Count)
system.cpu.icache.demandMissLatency::cpu.inst   3414774496                       # number of demand (read+write) miss ticks (Tick)
system.cpu.icache.demandMissLatency::total   3414774496                       # number of demand (read+write) miss ticks (Tick)
system.cpu.icache.overallMissLatency::cpu.inst   3414774496                       # number of overall miss ticks (Tick)
system.cpu.icache.overallMissLatency::total   3414774496                       # number of overall miss ticks (Tick)
system.cpu.icache.demandAccesses::cpu.inst     48982655                       # number of demand (read+write) accesses (Count)
system.cpu.icache.demandAccesses::total      48982655                       # number of demand (read+write) accesses (Count)
system.cpu.icache.overallAccesses::cpu.inst     48982655                       # number of overall (read+write) accesses (Count)
system.cpu.icache.overallAccesses::total     48982655                       # number of overall (read+write) accesses (Count)
system.cpu.icache.demandMissRate::cpu.inst     0.003000                       # miss rate for demand accesses (Ratio)
system.cpu.icache.demandMissRate::total      0.003000                       # miss rate for demand accesses (Ratio)
system.cpu.icache.overallMissRate::cpu.inst     0.003000                       # miss rate for overall accesses (Ratio)
system.cpu.icache.overallMissRate::total     0.003000                       # miss rate for overall accesses (Ratio)
system.cpu.icache.demandAvgMissLatency::cpu.inst 23238.611280                       # average overall miss latency ((Cycle/Count))
system.cpu.icache.demandAvgMissLatency::total 23238.611280                       # average overall miss latency ((Cycle/Count))
system.cpu.icache.overallAvgMissLatency::cpu.inst 23238.611280                       # average overall miss latency ((Cycle/Count))
system.cpu.icache.overallAvgMissLatency::total 23238.611280                       # average overall miss latency ((Cycle/Count))
system.cpu.icache.blockedCycles::no_mshrs          973                       # number of cycles access was blocked (Cycle)
system.cpu.icache.blockedCycles::no_targets            0                       # number of cycles access was blocked (Cycle)
system.cpu.icache.blockedCauses::no_mshrs           20                       # number of times access was blocked (Count)
system.cpu.icache.blockedCauses::no_targets            0                       # number of times access was blocked (Count)
system.cpu.icache.avgBlocked::no_mshrs      48.650000                       # average number of cycles each access was blocked ((Cycle/Count))
system.cpu.icache.avgBlocked::no_targets          nan                       # average number of cycles each access was blocked ((Cycle/Count))
system.cpu.icache.writebacks::writebacks       144421                       # number of writebacks (Count)
system.cpu.icache.writebacks::total            144421                       # number of writebacks (Count)
system.cpu.icache.demandMshrHits::cpu.inst         2020                       # number of demand (read+write) MSHR hits (Count)
system.cpu.icache.demandMshrHits::total          2020                       # number of demand (read+write) MSHR hits (Count)
system.cpu.icache.overallMshrHits::cpu.inst         2020                       # number of overall MSHR hits (Count)
system.cpu.icache.overallMshrHits::total         2020                       # number of overall MSHR hits (Count)
system.cpu.icache.demandMshrMisses::cpu.inst       144924                       # number of demand (read+write) MSHR misses (Count)
system.cpu.icache.demandMshrMisses::total       144924                       # number of demand (read+write) MSHR misses (Count)
system.cpu.icache.overallMshrMisses::cpu.inst       144924                       # number of overall MSHR misses (Count)
system.cpu.icache.overallMshrMisses::total       144924                       # number of overall MSHR misses (Count)
system.cpu.icache.demandMshrMissLatency::cpu.inst   3239885498                       # number of demand (read+write) MSHR miss ticks (Tick)
system.cpu.icache.demandMshrMissLatency::total   3239885498                       # number of demand (read+write) MSHR miss ticks (Tick)
system.cpu.icache.overallMshrMissLatency::cpu.inst   3239885498                       # number of overall MSHR miss ticks (Tick)
system.cpu.icache.overallMshrMissLatency::total   3239885498                       # number of overall MSHR miss ticks (Tick)
system.cpu.icache.demandMshrMissRate::cpu.inst     0.002959                       # mshr miss ratio for demand accesses (Ratio)
system.cpu.icache.demandMshrMissRate::total     0.002959                       # mshr miss ratio for demand accesses (Ratio)
system.cpu.icache.overallMshrMissRate::cpu.inst     0.002959                       # mshr miss ratio for overall accesses (Ratio)
system.cpu.icache.overallMshrMissRate::total     0.002959                       # mshr miss ratio for overall accesses (Ratio)
system.cpu.icache.demandAvgMshrMissLatency::cpu.inst 22355.755417                       # average overall mshr miss latency ((Cycle/Count))
system.cpu.icache.demandAvgMshrMissLatency::total 22355.755417                       # average overall mshr miss latency ((Cycle/Count))
system.cpu.icache.overallAvgMshrMissLatency::cpu.inst 22355.755417                       # average overall mshr miss latency ((Cycle/Count))
system.cpu.icache.overallAvgMshrMissLatency::total 22355.755417                       # average overall mshr miss latency ((Cycle/Count))
system.cpu.icache.replacements                 144421                       # number of replacements (Count)
system.cpu.icache.ReadReq.hits::cpu.inst     48835711                       # number of ReadReq hits (Count)
system.cpu.icache.ReadReq.hits::total        48835711                       # number of ReadReq hits (Count)
system.cpu.icache.ReadReq.misses::cpu.inst       146944                       # number of ReadReq misses (Count)
system.cpu.icache.ReadReq.misses::total        146944                       # number of ReadReq misses (Count)
system.cpu.icache.ReadReq.missLatency::cpu.inst   3414774496                       # number of ReadReq miss ticks (Tick)
system.cpu.icache.ReadReq.missLatency::total   3414774496                       # number of ReadReq miss ticks (Tick)
system.cpu.icache.ReadReq.accesses::cpu.inst     48982655                       # number of ReadReq accesses(hits+misses) (Count)
system.cpu.icache.ReadReq.accesses::total     48982655                       # number of ReadReq accesses(hits+misses) (Count)
system.cpu.icache.ReadReq.missRate::cpu.inst     0.003000                       # miss rate for ReadReq accesses (Ratio)
system.cpu.icache.ReadReq.missRate::total     0.003000                       # miss rate for ReadReq accesses (Ratio)
system.cpu.icache.ReadReq.avgMissLatency::cpu.inst 23238.611280                       # average ReadReq miss latency ((Tick/Count))
system.cpu.icache.ReadReq.avgMissLatency::total 23238.611280                       # average ReadReq miss latency ((Tick/Count))
system.cpu.icache.ReadReq.mshrHits::cpu.inst         2020                       # number of ReadReq MSHR hits (Count)
system.cpu.icache.ReadReq.mshrHits::total         2020                       # number of ReadReq MSHR hits (Count)
system.cpu.icache.ReadReq.mshrMisses::cpu.inst       144924                       # number of ReadReq MSHR misses (Count)
system.cpu.icache.ReadReq.mshrMisses::total       144924                       # number of ReadReq MSHR misses (Count)
system.cpu.icache.ReadReq.mshrMissLatency::cpu.inst   3239885498                       # number of ReadReq MSHR miss ticks (Tick)
system.cpu.icache.ReadReq.mshrMissLatency::total   3239885498                       # number of ReadReq MSHR miss ticks (Tick)
system.cpu.icache.ReadReq.mshrMissRate::cpu.inst     0.002959                       # mshr miss rate for ReadReq accesses (Ratio)
system.cpu.icache.ReadReq.mshrMissRate::total     0.002959                       # mshr miss rate for ReadReq accesses (Ratio)
system.cpu.icache.ReadReq.avgMshrMissLatency::cpu.inst 22355.755417                       # average ReadReq mshr miss latency ((Tick/Count))
system.cpu.icache.ReadReq.avgMshrMissLatency::total 22355.755417                       # average ReadReq mshr miss latency ((Tick/Count))
system.cpu.icache.power_state.pwrStateResidencyTicks::UNDEFINED  65184716500                       # Cumulative time (in ticks) in various power states (Tick)
system.cpu.icache.tags.tagsInUse           494.511382                       # Average ticks per tags in use ((Tick/Count))
system.cpu.icache.tags.totalRefs             48980634                       # Total number of references to valid blocks. (Count)
system.cpu.icache.tags.sampledRefs             144923                       # Sample count of references to valid blocks. (Count)
system.cpu.icache.tags.avgRefs             337.976953                       # Average number of references to valid blocks. ((Count/Count))
system.cpu.icache.tags.warmupTick               77000                       # The tick when the warmup percentage was hit. (Tick)
system.cpu.icache.tags.occupancies::cpu.inst   494.511382                       # Average occupied blocks per tick, per requestor ((Count/Tick))
system.cpu.icache.tags.avgOccs::cpu.inst     0.965843                       # Average percentage of cache occupancy ((Ratio/Tick))
system.cpu.icache.tags.avgOccs::total        0.965843                       # Average percentage of cache occupancy ((Ratio/Tick))
system.cpu.icache.tags.occupanciesTaskId::1024          502                       # Occupied blocks per task id (Count)
system.cpu.icache.tags.ageTaskId_1024::0          100                       # Occupied blocks per task id, per block age (Count)
system.cpu.icache.tags.ageTaskId_1024::2            1                       # Occupied blocks per task id, per block age (Count)
system.cpu.icache.tags.ageTaskId_1024::3            2                       # Occupied blocks per task id, per block age (Count)
system.cpu.icache.tags.ageTaskId_1024::4          399                       # Occupied blocks per task id, per block age (Count)
system.cpu.icache.tags.ratioOccsTaskId::1024     0.980469                       # Ratio of occupied blocks and all blocks, per task id (Ratio)
system.cpu.icache.tags.tagAccesses           98110233                       # Number of tag accesses (Count)
system.cpu.icache.tags.dataAccesses          98110233                       # Number of data accesses (Count)
system.cpu.icache.tags.power_state.pwrStateResidencyTicks::UNDEFINED  65184716500                       # Cumulative time (in ticks) in various power states (Tick)
system.cpu.iew.idleCycles                           0                       # Number of cycles IEW is idle (Cycle)
system.cpu.iew.squashCycles                    346001                       # Number of cycles IEW is squashing (Cycle)
system.cpu.iew.blockCycles                    2543679                       # Number of cycles IEW is blocking (Cycle)
system.cpu.iew.unblockCycles                   664831                       # Number of cycles IEW is unblocking (Cycle)
system.cpu.iew.dispatchedInsts              335572039                       # Number of instructions dispatched to IQ (Count)
system.cpu.iew.dispSquashedInsts                51753                       # Number of squashed instructions skipped by dispatch (Count)
system.cpu.iew.dispLoadInsts                 96443908                       # Number of dispatched load instructions (Count)
system.cpu.iew.dispStoreInsts                27690136                       # Number of dispatched store instructions (Count)
system.cpu.iew.dispNonSpecInsts                196984                       # Number of dispatched non-speculative instructions (Count)
system.cpu.iew.iqFullEvents                    119851                       # Number of times the IQ has become full, causing a stall (Count)
system.cpu.iew.lsqFullEvents                   495999                       # Number of times the LSQ has become full, causing a stall (Count)
system.cpu.iew.memOrderViolationEvents          67129                       # Number of memory order violations (Count)
[...]
system.mem_ctrls.dram.bwRead::cpu.inst      142289059                       # Total read bandwidth from this memory ((Byte/Second))
system.mem_ctrls.dram.bwRead::cpu.data       32491543                       # Total read bandwidth from this memory ((Byte/Second))
system.mem_ctrls.dram.bwRead::total         174780602                       # Total read bandwidth from this memory ((Byte/Second))
system.mem_ctrls.dram.bwInstRead::cpu.inst    142289059                       # Instruction read bandwidth from this memory ((Byte/Second))
system.mem_ctrls.dram.bwInstRead::total     142289059                       # Instruction read bandwidth from this memory ((Byte/Second))
system.mem_ctrls.dram.bwWrite::writebacks     18103876                       # Write bandwidth from this memory ((Byte/Second))
system.mem_ctrls.dram.bwWrite::total         18103876                       # Write bandwidth from this memory ((Byte/Second))
system.mem_ctrls.dram.bwTotal::writebacks     18103876                       # Total bandwidth to/from this memory ((Byte/Second))
system.mem_ctrls.dram.bwTotal::cpu.inst     142289059                       # Total bandwidth to/from this memory ((Byte/Second))
system.mem_ctrls.dram.bwTotal::cpu.data      32491543                       # Total bandwidth to/from this memory ((Byte/Second))
system.mem_ctrls.dram.bwTotal::total        192884478                       # Total bandwidth to/from this memory ((Byte/Second))
system.mem_ctrls.dram.readBursts                34734                       # Number of DRAM read bursts (Count)
system.mem_ctrls.dram.writeBursts               20132                       # Number of DRAM write bursts (Count)
system.mem_ctrls.dram.perBankRdBursts::0         2311                       # Per bank write bursts (Count)
system.mem_ctrls.dram.perBankRdBursts::1         2555                       # Per bank write bursts (Count)
system.mem_ctrls.dram.perBankRdBursts::2         2548                       # Per bank write bursts (Count)
system.mem_ctrls.dram.perBankRdBursts::3         2496                       # Per bank write bursts (Count)
system.mem_ctrls.dram.perBankRdBursts::4         2481                       # Per bank write bursts (Count)
system.mem_ctrls.dram.perBankRdBursts::5         2630                       # Per bank write bursts (Count)
system.mem_ctrls.dram.perBankRdBursts::6         2450                       # Per bank write bursts (Count)
system.mem_ctrls.dram.perBankRdBursts::7         2120                       # Per bank write bursts (Count)
system.mem_ctrls.dram.perBankRdBursts::8         1877                       # Per bank write bursts (Count)
system.mem_ctrls.dram.perBankRdBursts::9         1953                       # Per bank write bursts (Count)
system.mem_ctrls.dram.perBankRdBursts::10         1863                       # Per bank write bursts (Count)
system.mem_ctrls.dram.perBankRdBursts::11         2005                       # Per bank write bursts (Count)
system.mem_ctrls.dram.perBankRdBursts::12         1886                       # Per bank write bursts (Count)
system.mem_ctrls.dram.perBankRdBursts::13         1871                       # Per bank write bursts (Count)
system.mem_ctrls.dram.perBankRdBursts::14         1839                       # Per bank write bursts (Count)
system.mem_ctrls.dram.perBankRdBursts::15         1849                       # Per bank write bursts (Count)
system.mem_ctrls.dram.perBankWrBursts::0         1273                       # Per bank write bursts (Count)
system.mem_ctrls.dram.perBankWrBursts::1         1375                       # Per bank write bursts (Count)
system.mem_ctrls.dram.perBankWrBursts::2         1457                       # Per bank write bursts (Count)
system.mem_ctrls.dram.perBankWrBursts::3         1457                       # Per bank write bursts (Count)
system.mem_ctrls.dram.perBankWrBursts::4         1419                       # Per bank write bursts (Count)
system.mem_ctrls.dram.perBankWrBursts::5         1469                       # Per bank write bursts (Count)
system.mem_ctrls.dram.perBankWrBursts::6         1326                       # Per bank write bursts (Count)
system.mem_ctrls.dram.perBankWrBursts::7         1116                       # Per bank write bursts (Count)
system.mem_ctrls.dram.perBankWrBursts::8         1071                       # Per bank write bursts (Count)
system.mem_ctrls.dram.perBankWrBursts::9         1238                       # Per bank write bursts (Count)
system.mem_ctrls.dram.perBankWrBursts::10         1058                       # Per bank write bursts (Count)
system.mem_ctrls.dram.perBankWrBursts::11         1337                       # Per bank write bursts (Count)
system.mem_ctrls.dram.perBankWrBursts::12         1087                       # Per bank write bursts (Count)
system.mem_ctrls.dram.perBankWrBursts::13         1324                       # Per bank write bursts (Count)
system.mem_ctrls.dram.perBankWrBursts::14         1056                       # Per bank write bursts (Count)
system.mem_ctrls.dram.perBankWrBursts::15         1069                       # Per bank write bursts (Count)
system.mem_ctrls.dram.totQLat               806598500                       # Total ticks spent queuing (Tick)
system.mem_ctrls.dram.totBusLat             173670000                       # Total ticks spent in databus transfers (Tick)
system.mem_ctrls.dram.totMemAccLat         1457861000                       # Total ticks spent from burst creation until serviced by the DRAM (Tick)
system.mem_ctrls.dram.avgQLat                23222.16                       # Average queueing delay per DRAM burst ((Tick/Count))
system.mem_ctrls.dram.avgBusLat               5000.00                       # Average bus latency per DRAM burst ((Tick/Count))
system.mem_ctrls.dram.avgMemAccLat           41972.16                       # Average memory access latency per DRAM burst ((Tick/Count))
system.mem_ctrls.dram.readRowHits               24582                       # Number of row buffer hits during reads (Count)
system.mem_ctrls.dram.writeRowHits              17624                       # Number of row buffer hits during writes (Count)
system.mem_ctrls.dram.readRowHitRate            70.77                       # Row buffer hit rate for reads (Ratio)
system.mem_ctrls.dram.writeRowHitRate           87.54                       # Row buffer hit rate for writes (Ratio)
system.mem_ctrls.dram.bytesPerActivate::samples        12648                       # Bytes accessed per row activation (Byte)
system.mem_ctrls.dram.bytesPerActivate::mean   277.434535                       # Bytes accessed per row activation (Byte)
system.mem_ctrls.dram.bytesPerActivate::gmean   176.320904                       # Bytes accessed per row activation (Byte)
system.mem_ctrls.dram.bytesPerActivate::stdev   287.755616                       # Bytes accessed per row activation (Byte)
system.mem_ctrls.dram.bytesPerActivate::0-127         4653     36.79%     36.79% # Bytes accessed per row activation (Byte)
system.mem_ctrls.dram.bytesPerActivate::128-255         2353     18.60%     55.39% # Bytes accessed per row activation (Byte)
system.mem_ctrls.dram.bytesPerActivate::256-383         3632     28.72%     84.11% # Bytes accessed per row activation (Byte)
system.mem_ctrls.dram.bytesPerActivate::384-511          201      1.59%     85.70% # Bytes accessed per row activation (Byte)
system.mem_ctrls.dram.bytesPerActivate::512-639          129      1.02%     86.72% # Bytes accessed per row activation (Byte)
system.mem_ctrls.dram.bytesPerActivate::640-767          162      1.28%     88.00% # Bytes accessed per row activation (Byte)
system.mem_ctrls.dram.bytesPerActivate::768-895          231      1.83%     89.82% # Bytes accessed per row activation (Byte)
system.mem_ctrls.dram.bytesPerActivate::896-1023          207      1.64%     91.46% # Bytes accessed per row activation (Byte)
system.mem_ctrls.dram.bytesPerActivate::1024-1151         1080      8.54%    100.00% # Bytes accessed per row activation (Byte)
system.mem_ctrls.dram.bytesPerActivate::total        12648                       # Bytes accessed per row activation (Byte)
system.mem_ctrls.dram.bytesRead               2222976                       # Total bytes read (Byte)
system.mem_ctrls.dram.bytesWritten            1288448                       # Total bytes written (Byte)
system.mem_ctrls.dram.avgRdBW               34.102718                       # Average DRAM read bandwidth in MiBytes/s ((Byte/Second))
system.mem_ctrls.dram.avgWrBW               19.766106                       # Average DRAM write bandwidth in MiBytes/s ((Byte/Second))
system.mem_ctrls.dram.peakBW                 12800.00                       # Theoretical peak bandwidth in MiByte/s ((Byte/Second))
system.mem_ctrls.dram.busUtil                    0.42                       # Data bus utilization in percentage (Ratio)
system.mem_ctrls.dram.busUtilRead                0.27                       # Data bus utilization in percentage for reads (Ratio)
system.mem_ctrls.dram.busUtilWrite               0.15                       # Data bus utilization in percentage for writes (Ratio)
system.mem_ctrls.dram.pageHitRate               76.93                       # Row buffer hit rate, read and write combined (Ratio)
system.mem_ctrls.dram.power_state.pwrStateResidencyTicks::UNDEFINED  65184716500                       # Cumulative time (in ticks) in various power states (Tick)
system.mem_ctrls.dram.rank0.actEnergy        53057340                       # Energy for activate commands per rank (pJ) (Joule)
system.mem_ctrls.dram.rank0.preEnergy        28185465                       # Energy for precharge commands per rank (pJ) (Joule)
system.mem_ctrls.dram.rank0.readEnergy      139872600                       # Energy for read commands per rank (pJ) (Joule)
system.mem_ctrls.dram.rank0.writeEnergy      56856240                       # Energy for write commands per rank (pJ) (Joule)
system.mem_ctrls.dram.rank0.refreshEnergy 5145151440.000001                       # Energy for refresh commands per rank (pJ) (Joule)
system.mem_ctrls.dram.rank0.actBackEnergy   6857740680                       # Energy for active background per rank (pJ) (Joule)
system.mem_ctrls.dram.rank0.preBackEnergy  19255992000                       # Energy for precharge background per rank (pJ) (Joule)
system.mem_ctrls.dram.rank0.actPowerDownEnergy            0                       # Energy for active power-down per rank (pJ) (Joule)
system.mem_ctrls.dram.rank0.prePowerDownEnergy            0                       # Energy for precharge power-down per rank (pJ) (Joule)
system.mem_ctrls.dram.rank0.selfRefreshEnergy            0                       # Energy for self refresh per rank (pJ) (Joule)
system.mem_ctrls.dram.rank0.totalEnergy   31536855765                       # Total energy per rank (pJ) (Joule)
system.mem_ctrls.dram.rank0.averagePower   483.807516                       # Core power per rank (mW) (Watt)
system.mem_ctrls.dram.rank0.totalIdleTime            0                       # Total Idle time Per DRAM Rank (Tick)
system.mem_ctrls.dram.rank0.pwrStateTime::IDLE  49972752750                       # Time in different power states (Tick)
system.mem_ctrls.dram.rank0.pwrStateTime::REF   2176460000                       # Time in different power states (Tick)
system.mem_ctrls.dram.rank0.pwrStateTime::SREF            0                       # Time in different power states (Tick)
system.mem_ctrls.dram.rank0.pwrStateTime::PRE_PDN            0                       # Time in different power states (Tick)
system.mem_ctrls.dram.rank0.pwrStateTime::ACT  13035503750                       # Time in different power states (Tick)
system.mem_ctrls.dram.rank0.pwrStateTime::ACT_PDN            0                       # Time in different power states (Tick)
system.mem_ctrls.dram.rank1.actEnergy        37327920                       # Energy for activate commands per rank (pJ) (Joule)
system.mem_ctrls.dram.rank1.preEnergy        19813695                       # Energy for precharge commands per rank (pJ) (Joule)
system.mem_ctrls.dram.rank1.readEnergy      108121020                       # Energy for read commands per rank (pJ) (Joule)
system.mem_ctrls.dram.rank1.writeEnergy      48232800                       # Energy for write commands per rank (pJ) (Joule)
system.mem_ctrls.dram.rank1.refreshEnergy 5145151440.000001                       # Energy for refresh commands per rank (pJ) (Joule)
system.mem_ctrls.dram.rank1.actBackEnergy   5395881630                       # Energy for active background per rank (pJ) (Joule)
system.mem_ctrls.dram.rank1.preBackEnergy  20487031200                       # Energy for precharge background per rank (pJ) (Joule)
system.mem_ctrls.dram.rank1.actPowerDownEnergy            0                       # Energy for active power-down per rank (pJ) (Joule)
system.mem_ctrls.dram.rank1.prePowerDownEnergy            0                       # Energy for precharge power-down per rank (pJ) (Joule)
system.mem_ctrls.dram.rank1.selfRefreshEnergy            0                       # Energy for self refresh per rank (pJ) (Joule)
system.mem_ctrls.dram.rank1.totalEnergy   31241559705                       # Total energy per rank (pJ) (Joule)
system.mem_ctrls.dram.rank1.averagePower   479.277373                       # Core power per rank (mW) (Watt)
system.mem_ctrls.dram.rank1.totalIdleTime            0                       # Total Idle time Per DRAM Rank (Tick)
system.mem_ctrls.dram.rank1.pwrStateTime::IDLE  53195293500                       # Time in different power states (Tick)
system.mem_ctrls.dram.rank1.pwrStateTime::REF   2176460000                       # Time in different power states (Tick)
system.mem_ctrls.dram.rank1.pwrStateTime::SREF            0                       # Time in different power states (Tick)
system.mem_ctrls.dram.rank1.pwrStateTime::PRE_PDN            0                       # Time in different power states (Tick)
system.mem_ctrls.dram.rank1.pwrStateTime::ACT   9812963000                       # Time in different power states (Tick)
system.mem_ctrls.dram.rank1.pwrStateTime::ACT_PDN            0                       # Time in different power states (Tick)
system.mem_ctrls.power_state.pwrStateResidencyTicks::UNDEFINED  65184716500                       # Cumulative time (in ticks) in various power states (Tick)
system.membus.transDist::ReadResp              163629                       # Transaction distribution (Count)
system.membus.transDist::WritebackDirty         18439                       # Transaction distribution (Count)
system.membus.transDist::WritebackClean        144421                       # Transaction distribution (Count)
system.membus.transDist::CleanEvict             14701                       # Transaction distribution (Count)
system.membus.transDist::ReadExReq              14387                       # Transaction distribution (Count)
system.membus.transDist::ReadExResp             14387                       # Transaction distribution (Count)
system.membus.transDist::ReadCleanReq          144924                       # Transaction distribution (Count)
system.membus.transDist::ReadSharedReq          18706                       # Transaction distribution (Count)
system.membus.transDist::InvalidateReq           2095                       # Transaction distribution (Count)
system.membus.pktCount_system.cpu.icache.mem_side_port::system.mem_ctrls.port       434268                       # Packet count per connected requestor and responder (Count)
system.membus.pktCount_system.cpu.dcache.mem_side_port::system.mem_ctrls.port       101421                       # Packet count per connected requestor and responder (Count)
system.membus.pktCount::total                  535689                       # Packet count per connected requestor and responder (Count)
system.membus.pktSize_system.cpu.icache.mem_side_port::system.mem_ctrls.port     18518016                       # Cumulative packet size per connected requestor and responder (Byte)
system.membus.pktSize_system.cpu.dcache.mem_side_port::system.mem_ctrls.port      3298048                       # Cumulative packet size per connected requestor and responder (Byte)
system.membus.pktSize::total                 21816064                       # Cumulative packet size per connected requestor and responder (Byte)
system.membus.snoops                                0                       # Total snoops (Count)
system.membus.snoopTraffic                          0                       # Total snoop traffic (Byte)
system.membus.snoopFanout::samples             180112                       # Request fanout histogram (Count)
system.membus.snoopFanout::mean              0.000011                       # Request fanout histogram (Count)
system.membus.snoopFanout::stdev             0.003332                       # Request fanout histogram (Count)
system.membus.snoopFanout::underflows               0      0.00%      0.00% # Request fanout histogram (Count)
system.membus.snoopFanout::0                   180110    100.00%    100.00% # Request fanout histogram (Count)
system.membus.snoopFanout::1                        2      0.00%    100.00% # Request fanout histogram (Count)
system.membus.snoopFanout::2                        0      0.00%    100.00% # Request fanout histogram (Count)
system.membus.snoopFanout::overflows                0      0.00%    100.00% # Request fanout histogram (Count)
system.membus.snoopFanout::min_value                0                       # Request fanout histogram (Count)
system.membus.snoopFanout::max_value                1                       # Request fanout histogram (Count)
system.membus.snoopFanout::total               180112                       # Request fanout histogram (Count)
system.membus.power_state.pwrStateResidencyTicks::UNDEFINED  65184716500                       # Cumulative time (in ticks) in various power states (Tick)
system.membus.reqLayer0.occupancy          1042355000                       # Layer occupancy (ticks) (Tick)
system.membus.reqLayer0.utilization               0.0                       # Layer utilization (Ratio)
system.membus.respLayer1.occupancy          725202500                       # Layer occupancy (ticks) (Tick)
system.membus.respLayer1.utilization              0.0                       # Layer utilization (Ratio)
system.membus.respLayer2.occupancy          173821750                       # Layer occupancy (ticks) (Tick)
system.membus.respLayer2.utilization              0.0                       # Layer utilization (Ratio)
system.membus.snoop_filter.totRequests         357677                       # Total number of requests made to the snoop filter. (Count)
system.membus.snoop_filter.hitSingleRequests       177566                       # Number of requests hitting in the snoop filter with a single holder of the requested data. (Count)
system.membus.snoop_filter.hitMultiRequests            1                       # Number of requests hitting in the snoop filter with multiple (>1) holders of the requested data. (Count)
system.membus.snoop_filter.totSnoops                0                       # Total number of snoops made to the snoop filter. (Count)
system.membus.snoop_filter.hitSingleSnoops            0                       # Number of snoops hitting in the snoop filter with a single holder of the requested data. (Count)
system.membus.snoop_filter.hitMultiSnoops            0                       # Number of snoops hitting in the snoop filter with multiple (>1) holders of the requested data. (Count)
system.voltage_domain.voltage                       1                       # Voltage in Volts (Volt)
system.workload.inst.arm                            0                       # number of arm instructions executed (Count)
system.workload.inst.quiesce                        0                       # number of quiesce instructions executed (Count)

---------- End Simulation Statistics   ----------
