
---------- Begin Simulation Statistics ----------
simSeconds                                   0.032295                       # Number of seconds simulated (Second)
simTicks                                  32295168500                       # Number of ticks simulated (Tick)
finalTick                                 32295168500                       # Number of ticks from beginning of simulation (restored from checkpoints and never reset) (Tick)
simFreq                                  1000000000000                       # The number of ticks per simulated second ((Tick/Second))
hostSeconds                                    205.46                       # Real time elapsed on the host (Second)
hostTickRate                                157183683                       # The number of ticks simulated per host second (ticks/s) ((Tick/Second))
hostMemory                                     681512                       # Number of bytes of host memory used (Byte)
simInsts                                    136240748                       # Number of instructions simulated (Count)
simOps                                      146464445                       # Number of ops (including micro ops) simulated (Count)
hostInstRate                                   663096                       # Simulator instruction rate (inst/s) ((Count/Second))
hostOpRate                                     712856                       # Simulator op (including micro ops) rate (op/s) ((Count/Second))
system.clk_domain.clock                          1000                       # Clock period in ticks (Tick)
system.cpu.numCycles                         64590338                       # Number of cpu cycles simulated (Cycle)
system.cpu.numWorkItemsStarted                      0                       # Number of work items this cpu started (Count)
system.cpu.numWorkItemsCompleted                    0                       # Number of work items this cpu completed (Count)
system.cpu.instsAdded                       155231707                       # Number of instructions added to the IQ (excludes non-spec) (Count)
system.cpu.nonSpecInstsAdded                   196995                       # Number of non-speculative instructions added to the IQ (Count)
system.cpu.instsIssued                      154783269                       # Number of instructions issued (Count)
system.cpu.squashedInstsIssued                 283736                       # Number of squashed instructions issued (Count)
system.cpu.squashedInstsExamined              8964256                       # Number of squashed instructions iterated over during squash; mainly for profiling (Count)
system.cpu.squashedOperandsExamined           6755597                       # Number of squashed operands that are examined and possibly removed from graph (Count)
system.cpu.squashedNonSpecRemoved                 181                       # Number of squashed non-spec instructions that were removed (Count)
system.cpu.numIssuedDist::samples            62733152                       # Number of insts issued each cycle (Count)
system.cpu.numIssuedDist::mean               2.467328                       # Number of insts issued each cycle (Count)
system.cpu.numIssuedDist::stdev              2.077295                       # Number of insts issued each cycle (Count)
system.cpu.numIssuedDist::underflows                0      0.00%      0.00% # Number of insts issued each cycle (Count)
system.cpu.numIssuedDist::0                  15648183     24.94%     24.94% # Number of insts issued each cycle (Count)
system.cpu.numIssuedDist::1                   6680249     10.65%     35.59% # Number of insts issued each cycle (Count)
system.cpu.numIssuedDist::2                  11562652     18.43%     54.02% # Number of insts issued each cycle (Count)
system.cpu.numIssuedDist::3                  10976480     17.50%     71.52% # Number of insts issued each cycle (Count)
system.cpu.numIssuedDist::4                   7684758     12.25%     83.77% # Number of insts issued each cycle (Count)
system.cpu.numIssuedDist::5                   3204656      5.11%     88.88% # Number of insts issued each cycle (Count)
system.cpu.numIssuedDist::6                   4594485      7.32%     96.20% # Number of insts issued each cycle (Count)
system.cpu.numIssuedDist::7                   1334458      2.13%     98.33% # Number of insts issued each cycle (Count)
system.cpu.numIssuedDist::8                   1047231      1.67%    100.00% # Number of insts issued each cycle (Count)
system.cpu.numIssuedDist::overflows                 0      0.00%    100.00% # Number of insts issued each cycle (Count)
system.cpu.numIssuedDist::min_value                 0                       # Number of insts issued each cycle (Count)
system.cpu.numIssuedDist::max_value                 8                       # Number of insts issued each cycle (Count)
system.cpu.numIssuedDist::total              62733152                       # Number of insts issued each cycle (Count)
system.cpu.statFuBusy::No_OpClass                   0      0.00%      0.00% # attempts to use FU when none available (Count)
system.cpu.statFuBusy::IntAlu                  387506     13.88%     13.88% # attempts to use FU when none available (Count)
system.cpu.statFuBusy::IntMult                 193985      6.95%     20.82% # attempts to use FU when none available (Count)
system.cpu.statFuBusy::IntDiv                       0      0.00%     20.82% # attempts to use FU when none available (Count)
system.cpu.statFuBusy::FloatAdd                     0      0.00%     20.82% # attempts to use FU when none available (Count)
system.cpu.statFuBusy::FloatCmp                     1      0.00%     20.82% # attempts to use FU when none available (Count)
system.cpu.statFuBusy::FloatCvt                     0      0.00%     20.82% # attempts to use FU when none available (Count)
system.cpu.statFuBusy::FloatMult                    0      0.00%     20.82% # attempts to use FU when none available (Count)
system.cpu.statFuBusy::FloatMultAcc                 0      0.00%     20.82% # attempts to use FU when none available (Count)
system.cpu.statFuBusy::FloatDiv                     0      0.00%     20.82% # attempts to use FU when none available (Count)
system.cpu.statFuBusy::FloatMisc                    0      0.00%     20.82% # attempts to use FU when none available (Count)
system.cpu.statFuBusy::FloatSqrt                    0      0.00%     20.82% # attempts to use FU when none available (Count)
system.cpu.statFuBusy::SimdAdd                      0      0.00%     20.82% # attempts to use FU when none available (Count)
system.cpu.statFuBusy::SimdAddAcc                   0      0.00%     20.82% # attempts to use FU when none available (Count)
system.cpu.statFuBusy::SimdAlu                      1      0.00%     20.82% # attempts to use FU when none available (Count)
system.cpu.statFuBusy::SimdCmp                      7      0.00%     20.82% # attempts to use FU when none available (Count)
system.cpu.statFuBusy::SimdCvt                      0      0.00%     20.82% # attempts to use FU when none available (Count)
system.cpu.statFuBusy::SimdMisc                     0      0.00%     20.82% # attempts to use FU when none available (Count)
system.cpu.statFuBusy::SimdMult                     0      0.00%     20.82% # attempts to use FU when none available (Count)
system.cpu.statFuBusy::SimdMultAcc                  0      0.00%     20.82% # attempts to use FU when none available (Count)
system.cpu.statFuBusy::SimdShift                    0      0.00%     20.82% # attempts to use FU when none available (Count)
system.cpu.statFuBusy::SimdShiftAcc                 0      0.00%     20.82% # attempts to use FU when none available (Count)
system.cpu.statFuBusy::SimdDiv                      0      0.00%     20.82% # attempts to use FU when none available (Count)
system.cpu.statFuBusy::SimdSqrt                     0      0.00%     20.82% # attempts to use FU when none available (Count)
system.cpu.statFuBusy::SimdFloatAdd                 0      0.00%     20.82% # attempts to use FU when none available (Count)
system.cpu.statFuBusy::SimdFloatAlu                 0      0.00%     20.82% # attempts to use FU when none available (Count)
system.cpu.statFuBusy::SimdFloatCmp                 0      0.00%     20.82% # attempts to use FU when none available (Count)
system.cpu.statFuBusy::SimdFloatCvt                 0      0.00%     20.82% # attempts to use FU when none available (Count)
system.cpu.statFuBusy::SimdFloatDiv                 0      0.00%     20.82% # attempts to use FU when none available (Count)
system.cpu.statFuBusy::SimdFloatMisc                0      0.00%     20.82% # attempts to use FU when none available (Count)
system.cpu.statFuBusy::SimdFloatMult                0      0.00%     20.82% # attempts to use FU when none available (Count)
system.cpu.statFuBusy::SimdFloatMultAcc             0      0.00%     20.82% # attempts to use FU when none available (Count)
system.cpu.statFuBusy::SimdFloatSqrt                0      0.00%     20.82% # attempts to use FU when none available (Count)
system.cpu.statFuBusy::SimdReduceAdd                0      0.00%     20.82% # attempts to use FU when none available (Count)
system.cpu.statFuBusy::SimdReduceAlu                0      0.00%     20.82% # attempts to use FU when none available (Count)
system.cpu.statFuBusy::SimdReduceCmp                0      0.00%     20.82% # attempts to use FU when none available (Count)
system.cpu.statFuBusy::SimdFloatReduceAdd            0      0.00%     20.82% # attempts to use FU when none available (Count)
system.cpu.statFuBusy::SimdFloatReduceCmp            0      0.00%     20.82% # attempts to use FU when none available (Count)
system.cpu.statFuBusy::SimdAes                      0      0.00%     20.82% # attempts to use FU when none available (Count)
system.cpu.statFuBusy::SimdAesMix                   0      0.00%     20.82% # attempts to use FU when none available (Count)
system.cpu.statFuBusy::SimdSha1Hash                 0      0.00%     20.82% # attempts to use FU when none available (Count)
system.cpu.statFuBusy::SimdSha1Hash2                0      0.00%     20.82% # attempts to use FU when none available (Count)
system.cpu.statFuBusy::SimdSha256Hash               0      0.00%     20.82% # attempts to use FU when none available (Count)
system.cpu.statFuBusy::SimdSha256Hash2              0      0.00%     20.82% # attempts to use FU when none available (Count)
system.cpu.statFuBusy::SimdShaSigma2                0      0.00%     20.82% # attempts to use FU when none available (Count)
system.cpu.statFuBusy::SimdShaSigma3                0      0.00%     20.82% # attempts to use FU when none available (Count)
system.cpu.statFuBusy::SimdPredAlu                  0      0.00%     20.82% # attempts to use FU when none available (Count)
system.cpu.statFuBusy::MemRead                1098735     39.34%     60.17% # attempts to use FU when none available (Count)
system.cpu.statFuBusy::MemWrite               1112380     39.83%    100.00% # attempts to use FU when none available (Count)
system.cpu.statFuBusy::FloatMemRead                 0      0.00%    100.00% # attempts to use FU when none available (Count)
system.cpu.statFuBusy::FloatMemWrite                0      0.00%    100.00% # attempts to use FU when none available (Count)
system.cpu.statFuBusy::IprAccess                    0      0.00%    100.00% # attempts to use FU when none available (Count)
system.cpu.statFuBusy::InstPrefetch                 0      0.00%    100.00% # attempts to use FU when none available (Count)
system.cpu.statIssuedInstType_0::No_OpClass       131148      0.08%      0.08% # Number of instructions issued per FU type, per thread (Count)
system.cpu.statIssuedInstType_0::IntAlu      97996958     63.31%     63.40% # Number of instructions issued per FU type, per thread (Count)
system.cpu.statIssuedInstType_0::IntMult      1248626      0.81%     64.20% # Number of instructions issued per FU type, per thread (Count)
system.cpu.statIssuedInstType_0::IntDiv        236768      0.15%     64.36% # Number of instructions issued per FU type, per thread (Count)
system.cpu.statIssuedInstType_0::FloatAdd        24224      0.02%     64.37% # Number of instructions issued per FU type, per thread (Count)
system.cpu.statIssuedInstType_0::FloatCmp        68801      0.04%     64.42% # Number of instructions issued per FU type, per thread (Count)
system.cpu.statIssuedInstType_0::FloatCvt            0      0.00%     64.42% # Number of instructions issued per FU type, per thread (Count)
system.cpu.statIssuedInstType_0::FloatMult        22587      0.01%     64.43% # Number of instructions issued per FU type, per thread (Count)
system.cpu.statIssuedInstType_0::FloatMultAcc            0      0.00%     64.43% # Number of instructions issued per FU type, per thread (Count)
system.cpu.statIssuedInstType_0::FloatDiv            0      0.00%     64.43% # Number of instructions issued per FU type, per thread (Count)
system.cpu.statIssuedInstType_0::FloatMisc        62279      0.04%     64.47% # Number of instructions issued per FU type, per thread (Count)
system.cpu.statIssuedInstType_0::FloatSqrt            0      0.00%     64.47% # Number of instructions issued per FU type, per thread (Count)
system.cpu.statIssuedInstType_0::SimdAdd        65578      0.04%     64.51% # Number of instructions issued per FU type, per thread (Count)
system.cpu.statIssuedInstType_0::SimdAddAcc            0      0.00%     64.51% # Number of instructions issued per FU type, per thread (Count)
system.cpu.statIssuedInstType_0::SimdAlu       131126      0.08%     64.60% # Number of instructions issued per FU type, per thread (Count)
system.cpu.statIssuedInstType_0::SimdCmp       131120      0.08%     64.68% # Number of instructions issued per FU type, per thread (Count)
system.cpu.statIssuedInstType_0::SimdCvt            0      0.00%     64.68% # Number of instructions issued per FU type, per thread (Count)
system.cpu.statIssuedInstType_0::SimdMisc       127830      0.08%     64.77% # Number of instructions issued per FU type, per thread (Count)
system.cpu.statIssuedInstType_0::SimdMult            0      0.00%     64.77% # Number of instructions issued per FU type, per thread (Count)
system.cpu.statIssuedInstType_0::SimdMultAcc            0      0.00%     64.77% # Number of instructions issued per FU type, per thread (Count)
system.cpu.statIssuedInstType_0::SimdShift            0      0.00%     64.77% # Number of instructions issued per FU type, per thread (Count)
system.cpu.statIssuedInstType_0::SimdShiftAcc            0      0.00%     64.77% # Number of instructions issued per FU type, per thread (Count)
system.cpu.statIssuedInstType_0::SimdDiv            0      0.00%     64.77% # Number of instructions issued per FU type, per thread (Count)
system.cpu.statIssuedInstType_0::SimdSqrt            0      0.00%     64.77% # Number of instructions issued per FU type, per thread (Count)
system.cpu.statIssuedInstType_0::SimdFloatAdd            0      0.00%     64.77% # Number of instructions issued per FU type, per thread (Count)
system.cpu.statIssuedInstType_0::SimdFloatAlu            0      0.00%     64.77% # Number of instructions issued per FU type, per thread (Count)
system.cpu.statIssuedInstType_0::SimdFloatCmp            0      0.00%     64.77% # Number of instructions issued per FU type, per thread (Count)
system.cpu.statIssuedInstType_0::SimdFloatCvt            0      0.00%     64.77% # Number of instructions issued per FU type, per thread (Count)
system.cpu.statIssuedInstType_0::SimdFloatDiv            0      0.00%     64.77% # Number of instructions issued per FU type, per thread (Count)
system.cpu.statIssuedInstType_0::SimdFloatMisc            0      0.00%     64.77% # Number of instructions issued per FU type, per thread (Count)
system.cpu.statIssuedInstType_0::SimdFloatMult            0      0.00%     64.77% # Number of instructions issued per FU type, per thread (Count)
system.cpu.statIssuedInstType_0::SimdFloatMultAcc            0      0.00%     64.77% # Number of instructions issued per FU type, per thread (Count)
system.cpu.statIssuedInstType_0::SimdFloatSqrt            0      0.00%     64.77% # Number of instructions issued per FU type, per thread (Count)
system.cpu.statIssuedInstType_0::SimdReduceAdd            0      0.00%     64.77% # Number of instructions issued per FU type, per thread (Count)
system.cpu.statIssuedInstType_0::SimdReduceAlu            0      0.00%     64.77% # Number of instructions issued per FU type, per thread (Count)
system.cpu.statIssuedInstType_0::SimdReduceCmp            0      0.00%     64.77% # Number of instructions issued per FU type, per thread (Count)
system.cpu.statIssuedInstType_0::SimdFloatReduceAdd            0      0.00%     64.77% # Number of instructions issued per FU type, per thread (Count)
system.cpu.statIssuedInstType_0::SimdFloatReduceCmp            0      0.00%     64.77% # Number of instructions issued per FU type, per thread (Count)
system.cpu.statIssuedInstType_0::SimdAes            0      0.00%     64.77% # Number of instructions issued per FU type, per thread (Count)
system.cpu.statIssuedInstType_0::SimdAesMix            0      0.00%     64.77% # Number of instructions issued per FU type, per thread (Count)
system.cpu.statIssuedInstType_0::SimdSha1Hash            0      0.00%     64.77% # Number of instructions issued per FU type, per thread (Count)
system.cpu.statIssuedInstType_0::SimdSha1Hash2            0      0.00%     64.77% # Number of instructions issued per FU type, per thread (Count)
system.cpu.statIssuedInstType_0::SimdSha256Hash            0      0.00%     64.77% # Number of instructions issued per FU type, per thread (Count)
system.cpu.statIssuedInstType_0::SimdSha256Hash2            0      0.00%     64.77% # Number of instructions issued per FU type, per thread (Count)
system.cpu.statIssuedInstType_0::SimdShaSigma2            0      0.00%     64.77% # Number of instructions issued per FU type, per thread (Count)
system.cpu.statIssuedInstType_0::SimdShaSigma3            0      0.00%     64.77% # Number of instructions issued per FU type, per thread (Count)
system.cpu.statIssuedInstType_0::SimdPredAlu            0      0.00%     64.77% # Number of instructions issued per FU type, per thread (Count)
system.cpu.statIssuedInstType_0::MemRead     37810205     24.43%     89.19% # Number of instructions issued per FU type, per thread (Count)
system.cpu.statIssuedInstType_0::MemWrite     16726019     10.81%    100.00% # Number of instructions issued per FU type, per thread (Count)
system.cpu.statIssuedInstType_0::FloatMemRead            0      0.00%    100.00% # Number of instructions issued per FU type, per thread (Count)
system.cpu.statIssuedInstType_0::FloatMemWrite            0      0.00%    100.00% # Number of instructions issued per FU type, per thread (Count)
system.cpu.statIssuedInstType_0::IprAccess            0      0.00%    100.00% # Number of instructions issued per FU type, per thread (Count)
system.cpu.statIssuedInstType_0::InstPrefetch            0      0.00%    100.00% # Number of instructions issued per FU type, per thread (Count)
system.cpu.statIssuedInstType_0::total      154783269                       # Number of instructions issued per FU type, per thread (Count)
system.cpu.issueRate                         2.396384                       # Inst issue rate ((Count/Cycle))
system.cpu.fuBusy                             2792615                       # FU busy when requested (Count)
system.cpu.fuBusyRate                        0.018042                       # FU busy rate (busy events/executed inst) ((Count/Count))
system.cpu.intInstQueueReads                370187270                       # Number of integer instruction queue reads (Count)
system.cpu.intInstQueueWrites               161047620                       # Number of integer instruction queue writes (Count)
system.cpu.intInstQueueWakeupAccesses       149713177                       # Number of integer instruction queue wakeup accesses (Count)
system.cpu.fpInstQueueReads                         0                       # Number of floating instruction queue reads (Count)
system.cpu.fpInstQueueWrites                        0                       # Number of floating instruction queue writes (Count)
system.cpu.fpInstQueueWakeupAccesses                0                       # Number of floating instruction queue wakeup accesses (Count)
system.cpu.vecInstQueueReads                  5188771                       # Number of vector instruction queue reads (Count)
system.cpu.vecInstQueueWrites                 3405382                       # Number of vector instruction queue writes (Count)
system.cpu.vecInstQueueWakeupAccesses         2098433                       # Number of vector instruction queue wakeup accesses (Count)
system.cpu.intAluAccesses                   154792159                       # Number of integer alu accesses (Count)
system.cpu.fpAluAccesses                            0                       # Number of floating point alu accesses (Count)
system.cpu.vecAluAccesses                     2652577                       # Number of vector alu accesses (Count)
system.cpu.numInsts                         153997983                       # Number of executed instructions (Count)
system.cpu.numLoadInsts                      37656661                       # Number of load instructions executed (Count)
system.cpu.numSquashedInsts                    785286                       # Number of squashed instructions skipped in execute (Count)
system.cpu.numSwp                                   0                       # Number of swp insts executed (Count)
system.cpu.numNop                              120282                       # Number of nop insts executed (Count)
system.cpu.numRefs                           54113666                       # Number of memory reference insts executed (Count)
system.cpu.numBranches                       24719819                       # Number of branches executed (Count)
system.cpu.numStoreInsts                     16457005                       # Number of stores executed (Count)
system.cpu.numRate                           2.384226                       # Inst execution rate ((Count/Cycle))
system.cpu.timesIdled                           98492                       # Number of times that the entire CPU went into an idle state and unscheduled itself (Count)
system.cpu.idleCycles                         1857186                       # Total number of cycles that the CPU has spent unscheduled due to idling (Cycle)
system.cpu.committedInsts                   136240748                       # Number of Instructions Simulated (Count)
system.cpu.committedOps                     146464445                       # Number of Ops (including micro ops) Simulated (Count)
system.cpu.cpi                               0.474090                       # CPI: Cycles Per Instruction ((Cycle/Count))
system.cpu.totalCpi                          0.474090                       # CPI: Total CPI of All Threads ((Cycle/Count))
system.cpu.ipc                               2.109305                       # IPC: Instructions Per Cycle ((Count/Cycle))
system.cpu.totalIpc                          2.109305                       # IPC: Total IPC of All Threads ((Count/Cycle))
system.cpu.intRegfileReads                  178570777                       # Number of integer regfile reads (Count)
system.cpu.intRegfileWrites                 113849375                       # Number of integer regfile writes (Count)
system.cpu.vecRegfileReads                    2194712                       # number of vector regfile reads (Count)
system.cpu.vecRegfileWrites                    800416                       # number of vector regfile writes (Count)
system.cpu.ccRegfileReads                    46114434                       # number of cc regfile reads (Count)
system.cpu.ccRegfileWrites                   45845996                       # number of cc regfile writes (Count)
system.cpu.miscRegfileReads                 297498670                       # number of misc regfile reads (Count)
system.cpu.miscRegfileWrites                   323849                       # number of misc regfile writes (Count)
system.cpu.MemDepUnit__0.insertedLoads       36276442                       # Number of loads inserted to the mem dependence unit. (Count)
system.cpu.MemDepUnit__0.insertedStores      17541874                       # Number of stores inserted to the mem dependence unit. (Count)
system.cpu.MemDepUnit__0.conflictingLoads      8646884                       # Number of conflicting loads. (Count)
system.cpu.MemDepUnit__0.conflictingStores      1789997                       # Number of conflicting stores. (Count)
system.cpu.MemDepUnit__1.insertedLoads              0                       # Number of loads inserted to the mem dependence unit. (Count)
system.cpu.MemDepUnit__1.insertedStores             0                       # Number of stores inserted to the mem dependence unit. (Count)
system.cpu.MemDepUnit__1.conflictingLoads            0                       # Number of conflicting loads. (Count)
system.cpu.MemDepUnit__1.conflictingStores            0                       # Number of conflicting stores. (Count)
system.cpu.MemDepUnit__2.insertedLoads              0                       # Number of loads inserted to the mem dependence unit. (Count)
system.cpu.MemDepUnit__2.insertedStores             0                       # Number of stores inserted to the mem dependence unit. (Count)
system.cpu.MemDepUnit__2.conflictingLoads            0                       # Number of conflicting loads. (Count)
system.cpu.MemDepUnit__2.conflictingStores            0                       # Number of conflicting stores. (Count)
system.cpu.MemDepUnit__3.insertedLoads              0                       # Number of loads inserted to the mem dependence unit. (Count)
system.cpu.MemDepUnit__3.insertedStores             0                       # Number of stores inserted to the mem dependence unit. (Count)
system.cpu.MemDepUnit__3.conflictingLoads            0                       # Number of conflicting loads. (Count)
system.cpu.MemDepUnit__3.conflictingStores            0                       # Number of conflicting stores. (Count)
system.cpu.branchPred.lookups                26020601                       # Number of BP lookups (Count)
system.cpu.branchPred.condPredicted          18694773                       # Number of conditional branches predicted (Count)
system.cpu.branchPred.condIncorrect            221307                       # Number of conditional branches incorrect (Count)
system.cpu.branchPred.BTBLookups             14246625                       # Number of BTB lookups (Count)
system.cpu.branchPred.BTBHits                14197869                       # Number of BTB hits (Count)
system.cpu.branchPred.BTBHitRatio            0.996578                       # BTB Hit Ratio (Ratio)
system.cpu.branchPred.RASUsed                 1232925                       # Number of times the RAS was used to get a target. (Count)
system.cpu.branchPred.RASIncorrect                 27                       # Number of incorrect RAS predictions. (Count)
system.cpu.branchPred.indirectLookups          246284                       # Number of indirect predictor lookups. (Count)
system.cpu.branchPred.indirectHits             242053                       # Number of indirect target hits. (Count)
system.cpu.branchPred.indirectMisses             4231                       # Number of indirect misses. (Count)
system.cpu.branchPred.indirectMispredicted          197                       # Number of mispredicted indirect branches. (Count)
system.cpu.commit.commitSquashedInsts         8975097                       # The number of squashed insts skipped by commit (Count)
system.cpu.commit.commitNonSpecStalls          196814                       # The number of times commit has been forced to stall to communicate backwards (Count)
system.cpu.commit.branchMispredicts            207933                       # The number of times a branch was mispredicted (Count)
system.cpu.commit.numCommittedDist::samples     61478474                       # Number of insts commited each cycle (Count)
system.cpu.commit.numCommittedDist::mean     2.384151                       # Number of insts commited each cycle (Count)
system.cpu.commit.numCommittedDist::stdev     2.933192                       # Number of insts commited each cycle (Count)
system.cpu.commit.numCommittedDist::underflows            0      0.00%      0.00% # Number of insts commited each cycle (Count)
system.cpu.commit.numCommittedDist::0        23856088     38.80%     38.80% # Number of insts commited each cycle (Count)
system.cpu.commit.numCommittedDist::1        13396957     21.79%     60.60% # Number of insts commited each cycle (Count)
system.cpu.commit.numCommittedDist::2         4036786      6.57%     67.16% # Number of insts commited each cycle (Count)
system.cpu.commit.numCommittedDist::3         2362460      3.84%     71.00% # Number of insts commited each cycle (Count)
system.cpu.commit.numCommittedDist::4         3722336      6.05%     77.06% # Number of insts commited each cycle (Count)
system.cpu.commit.numCommittedDist::5          741574      1.21%     78.27% # Number of insts commited each cycle (Count)
system.cpu.commit.numCommittedDist::6         3246769      5.28%     83.55% # Number of insts commited each cycle (Count)
system.cpu.commit.numCommittedDist::7          985826      1.60%     85.15% # Number of insts commited each cycle (Count)
system.cpu.commit.numCommittedDist::8         9129678     14.85%    100.00% # Number of insts commited each cycle (Count)
system.cpu.commit.numCommittedDist::overflows            0      0.00%    100.00% # Number of insts commited each cycle (Count)
system.cpu.commit.numCommittedDist::min_value            0                       # Number of insts commited each cycle (Count)
system.cpu.commit.numCommittedDist::max_value            8                       # Number of insts commited each cycle (Count)
system.cpu.commit.numCommittedDist::total     61478474                       # Number of insts commited each cycle (Count)
system.cpu.commit.instsCommitted            136350246                       # Number of instructions committed (Count)
system.cpu.commit.opsCommitted              146573943                       # Number of ops (including micro ops) committed (Count)
system.cpu.commit.memRefs                    50232826                       # Number of memory references committed (Count)
system.cpu.commit.loads                      34924504                       # Number of loads committed (Count)
system.cpu.commit.amos                          98358                       # Number of atomic instructions committed (Count)
system.cpu.commit.membars                       98368                       # Number of memory barriers committed (Count)
system.cpu.commit.branches                   24112031                       # Number of branches committed (Count)
system.cpu.commit.vectorInstructions          1731568                       # Number of committed Vector instructions. (Count)
system.cpu.commit.floating                          0                       # Number of committed floating point instructions. (Count)
system.cpu.commit.integer                   128542118                       # Number of committed integer instructions. (Count)
system.cpu.commit.functionCalls               1146638                       # Number of function calls committed. (Count)
system.cpu.commit.committedInstType_0::No_OpClass       131142      0.09%      0.09% # Class of committed instruction (Count)
system.cpu.commit.committedInstType_0::IntAlu     94099973     64.20%     64.29% # Class of committed instruction (Count)
system.cpu.commit.committedInstType_0::IntMult      1248218      0.85%     65.14% # Class of committed instruction (Count)
system.cpu.commit.committedInstType_0::IntDiv       236522      0.16%     65.30% # Class of committed instruction (Count)
system.cpu.commit.committedInstType_0::FloatAdd        24224      0.02%     65.32% # Class of committed instruction (Count)
system.cpu.commit.committedInstType_0::FloatCmp        65536      0.04%     65.36% # Class of committed instruction (Count)
system.cpu.commit.committedInstType_0::FloatCvt            0      0.00%     65.36% # Class of committed instruction (Count)
system.cpu.commit.committedInstType_0::FloatMult        20948      0.01%     65.38% # Class of committed instruction (Count)
system.cpu.commit.committedInstType_0::FloatMultAcc            0      0.00%     65.38% # Class of committed instruction (Count)
system.cpu.commit.committedInstType_0::FloatDiv            0      0.00%     65.38% # Class of committed instruction (Count)
system.cpu.commit.committedInstType_0::FloatMisc        58980      0.04%     65.42% # Class of committed instruction (Count)
system.cpu.commit.committedInstType_0::FloatSqrt            0      0.00%     65.42% # Class of committed instruction (Count)
system.cpu.commit.committedInstType_0::SimdAdd        65560      0.04%     65.46% # Class of committed instruction (Count)
system.cpu.commit.committedInstType_0::SimdAddAcc            0      0.00%     65.46% # Class of committed instruction (Count)
system.cpu.commit.committedInstType_0::SimdAlu       131100      0.09%     65.55% # Class of committed instruction (Count)
system.cpu.commit.committedInstType_0::SimdCmp       131096      0.09%     65.64% # Class of committed instruction (Count)
system.cpu.commit.committedInstType_0::SimdCvt            0      0.00%     65.64% # Class of committed instruction (Count)
system.cpu.commit.committedInstType_0::SimdMisc       127818      0.09%     65.73% # Class of committed instruction (Count)
system.cpu.commit.committedInstType_0::SimdMult            0      0.00%     65.73% # Class of committed instruction (Count)
system.cpu.commit.committedInstType_0::SimdMultAcc            0      0.00%     65.73% # Class of committed instruction (Count)
system.cpu.commit.committedInstType_0::SimdShift            0      0.00%     65.73% # Class of committed instruction (Count)
system.cpu.commit.committedInstType_0::SimdShiftAcc            0      0.00%     65.73% # Class of committed instruction (Count)
system.cpu.commit.committedInstType_0::SimdDiv            0      0.00%     65.73% # Class of committed instruction (Count)
system.cpu.commit.committedInstType_0::SimdSqrt            0      0.00%     65.73% # Class of committed instruction (Count)
system.cpu.commit.committedInstType_0::SimdFloatAdd            0      0.00%     65.73% # Class of committed instruction (Count)
system.cpu.commit.committedInstType_0::SimdFloatAlu            0      0.00%     65.73% # Class of committed instruction (Count)
system.cpu.commit.committedInstType_0::SimdFloatCmp            0      0.00%     65.73% # Class of committed instruction (Count)
system.cpu.commit.committedInstType_0::SimdFloatCvt            0      0.00%     65.73% # Class of committed instruction (Count)
system.cpu.commit.committedInstType_0::SimdFloatDiv            0      0.00%     65.73% # Class of committed instruction (Count)
system.cpu.commit.committedInstType_0::SimdFloatMisc            0      0.00%     65.73% # Class of committed instruction (Count)
system.cpu.commit.committedInstType_0::SimdFloatMult            0      0.00%     65.73% # Class of committed instruction (Count)
system.cpu.commit.committedInstType_0::SimdFloatMultAcc            0      0.00%     65.73% # Class of committed instruction (Count)
system.cpu.commit.committedInstType_0::SimdFloatSqrt            0      0.00%     65.73% # Class of committed instruction (Count)
system.cpu.commit.committedInstType_0::SimdReduceAdd            0      0.00%     65.73% # Class of committed instruction (Count)
system.cpu.commit.committedInstType_0::SimdReduceAlu            0      0.00%     65.73% # Class of committed instruction (Count)
system.cpu.commit.committedInstType_0::SimdReduceCmp            0      0.00%     65.73% # Class of committed instruction (Count)
system.cpu.commit.committedInstType_0::SimdFloatReduceAdd            0      0.00%     65.73% # Class of committed instruction (Count)
system.cpu.commit.committedInstType_0::SimdFloatReduceCmp            0      0.00%     65.73% # Class of committed instruction (Count)
system.cpu.commit.committedInstType_0::SimdAes            0      0.00%     65.73% # Class of committed instruction (Count)
system.cpu.commit.committedInstType_0::SimdAesMix            0      0.00%     65.73% # Class of committed instruction (Count)
system.cpu.commit.committedInstType_0::SimdSha1Hash            0      0.00%     65.73% # Class of committed instruction (Count)
system.cpu.commit.committedInstType_0::SimdSha1Hash2            0      0.00%     65.73% # Class of committed instruction (Count)
system.cpu.commit.committedInstType_0::SimdSha256Hash            0      0.00%     65.73% # Class of committed instruction (Count)
system.cpu.commit.committedInstType_0::SimdSha256Hash2            0      0.00%     65.73% # Class of committed instruction (Count)
system.cpu.commit.committedInstType_0::SimdShaSigma2            0      0.00%     65.73% # Class of committed instruction (Count)
system.cpu.commit.committedInstType_0::SimdShaSigma3            0      0.00%     65.73% # Class of committed instruction (Count)
system.cpu.commit.committedInstType_0::SimdPredAlu            0      0.00%     65.73% # Class of committed instruction (Count)
system.cpu.commit.committedInstType_0::MemRead     34924504     23.83%     89.56% # Class of committed instruction (Count)
system.cpu.commit.committedInstType_0::MemWrite     15308322     10.44%    100.00% # Class of committed instruction (Count)
system.cpu.commit.committedInstType_0::FloatMemRead            0      0.00%    100.00% # Class of committed instruction (Count)
system.cpu.commit.committedInstType_0::FloatMemWrite            0      0.00%    100.00% # Class of committed instruction (Count)
system.cpu.commit.committedInstType_0::IprAccess            0      0.00%    100.00% # Class of committed instruction (Count)
system.cpu.commit.committedInstType_0::InstPrefetch            0      0.00%    100.00% # Class of committed instruction (Count)
system.cpu.commit.committedInstType_0::total    146573943                       # Class of committed instruction (Count)
system.cpu.commit.commitEligibleSamples       9129678                       # number cycles where commit BW limit reached (Cycle)
system.cpu.dcache.demandHits::cpu.data       40981097                       # number of demand (read+write) hits (Count)
system.cpu.dcache.demandHits::total          40981097                       # number of demand (read+write) hits (Count)
system.cpu.dcache.overallHits::cpu.data      41058127                       # number of overall hits (Count)
system.cpu.dcache.overallHits::total         41058127                       # number of overall hits (Count)
system.cpu.dcache.demandMisses::cpu.data       139491                       # number of demand (read+write) misses (Count)
system.cpu.dcache.demandMisses::total          139491                       # number of demand (read+write) misses (Count)
system.cpu.dcache.overallMisses::cpu.data       139499                       # number of overall misses (Count)
system.cpu.dcache.overallMisses::total         139499                       # number of overall misses (Count)
system.cpu.dcache.demandMissLatency::cpu.data   8979124657                       # number of demand (read+write) miss ticks (Tick)
system.cpu.dcache.demandMissLatency::total   8979124657                       # number of demand (read+write) miss ticks (Tick)
system.cpu.dcache.overallMissLatency::cpu.data   8979124657                       # number of overall miss ticks (Tick)
system.cpu.dcache.overallMissLatency::total   8979124657                       # number of overall miss ticks (Tick)
system.cpu.dcache.demandAccesses::cpu.data     41120588                       # number of demand (read+write) accesses (Count)
system.cpu.dcache.demandAccesses::total      41120588                       # number of demand (read+write) accesses (Count)
system.cpu.dcache.overallAccesses::cpu.data     41197626                       # number of overall (read+write) accesses (Count)
system.cpu.dcache.overallAccesses::total     41197626                       # number of overall (read+write) accesses (Count)
system.cpu.dcache.demandMissRate::cpu.data     0.003392                       # miss rate for demand accesses (Ratio)
system.cpu.dcache.demandMissRate::total      0.003392                       # miss rate for demand accesses (Ratio)
system.cpu.dcache.overallMissRate::cpu.data     0.003386                       # miss rate for overall accesses (Ratio)
system.cpu.dcache.overallMissRate::total     0.003386                       # miss rate for overall accesses (Ratio)
system.cpu.dcache.demandAvgMissLatency::cpu.data 64370.637941                       # average overall miss latency ((Cycle/Count))
system.cpu.dcache.demandAvgMissLatency::total 64370.637941                       # average overall miss latency ((Cycle/Count))
system.cpu.dcache.overallAvgMissLatency::cpu.data 64366.946408                       # average overall miss latency ((Cycle/Count))
system.cpu.dcache.overallAvgMissLatency::total 64366.946408                       # average overall miss latency ((Cycle/Count))
system.cpu.dcache.blockedCycles::no_mshrs       660201                       # number of cycles access was blocked (Cycle)
system.cpu.dcache.blockedCycles::no_targets            0                       # number of cycles access was blocked (Cycle)
system.cpu.dcache.blockedCauses::no_mshrs        17271                       # number of times access was blocked (Count)
system.cpu.dcache.blockedCauses::no_targets            0                       # number of times access was blocked (Count)
system.cpu.dcache.avgBlocked::no_mshrs      38.225986                       # average number of cycles each access was blocked ((Cycle/Count))
system.cpu.dcache.avgBlocked::no_targets          nan                       # average number of cycles each access was blocked ((Cycle/Count))
system.cpu.dcache.writebacks::writebacks        16809                       # number of writebacks (Count)
system.cpu.dcache.writebacks::total             16809                       # number of writebacks (Count)
system.cpu.dcache.demandMshrHits::cpu.data       106876                       # number of demand (read+write) MSHR hits (Count)
system.cpu.dcache.demandMshrHits::total        106876                       # number of demand (read+write) MSHR hits (Count)
system.cpu.dcache.overallMshrHits::cpu.data       106876                       # number of overall MSHR hits (Count)
system.cpu.dcache.overallMshrHits::total       106876                       # number of overall MSHR hits (Count)
system.cpu.dcache.demandMshrMisses::cpu.data        32615                       # number of demand (read+write) MSHR misses (Count)
system.cpu.dcache.demandMshrMisses::total        32615                       # number of demand (read+write) MSHR misses (Count)
system.cpu.dcache.overallMshrMisses::cpu.data        32623                       # number of overall MSHR misses (Count)
system.cpu.dcache.overallMshrMisses::total        32623                       # number of overall MSHR misses (Count)
system.cpu.dcache.demandMshrMissLatency::cpu.data   2269760176                       # number of demand (read+write) MSHR miss ticks (Tick)
system.cpu.dcache.demandMshrMissLatency::total   2269760176                       # number of demand (read+write) MSHR miss ticks (Tick)
system.cpu.dcache.overallMshrMissLatency::cpu.data   2270367176                       # number of overall MSHR miss ticks (Tick)
system.cpu.dcache.overallMshrMissLatency::total   2270367176                       # number of overall MSHR miss ticks (Tick)
system.cpu.dcache.demandMshrMissRate::cpu.data     0.000793                       # mshr miss ratio for demand accesses (Ratio)
system.cpu.dcache.demandMshrMissRate::total     0.000793                       # mshr miss ratio for demand accesses (Ratio)
system.cpu.dcache.overallMshrMissRate::cpu.data     0.000792                       # mshr miss ratio for overall accesses (Ratio)
system.cpu.dcache.overallMshrMissRate::total     0.000792                       # mshr miss ratio for overall accesses (Ratio)
system.cpu.dcache.demandAvgMshrMissLatency::cpu.data 69592.524176                       # average overall mshr miss latency ((Cycle/Count))
system.cpu.dcache.demandAvgMshrMissLatency::total 69592.524176                       # average overall mshr miss latency ((Cycle/Count))
system.cpu.dcache.overallAvgMshrMissLatency::cpu.data 69594.064801                       # average overall mshr miss latency ((Cycle/Count))
system.cpu.dcache.overallAvgMshrMissLatency::total 69594.064801                       # average overall mshr miss latency ((Cycle/Count))
system.cpu.dcache.replacements                  30578                       # number of replacements (Count)
system.cpu.dcache.LoadLockedReq.hits::cpu.data           40                       # number of LoadLockedReq hits (Count)
system.cpu.dcache.LoadLockedReq.hits::total           40                       # number of LoadLockedReq hits (Count)
system.cpu.dcache.LoadLockedReq.misses::cpu.data            6                       # number of LoadLockedReq misses (Count)
system.cpu.dcache.LoadLockedReq.misses::total            6                       # number of LoadLockedReq misses (Count)
system.cpu.dcache.LoadLockedReq.missLatency::cpu.data       474500                       # number of LoadLockedReq miss ticks (Tick)
system.cpu.dcache.LoadLockedReq.missLatency::total       474500                       # number of LoadLockedReq miss ticks (Tick)
system.cpu.dcache.LoadLockedReq.accesses::cpu.data           46                       # number of LoadLockedReq accesses(hits+misses) (Count)
system.cpu.dcache.LoadLockedReq.accesses::total           46                       # number of LoadLockedReq accesses(hits+misses) (Count)
system.cpu.dcache.LoadLockedReq.missRate::cpu.data     0.130435                       # miss rate for LoadLockedReq accesses (Ratio)
system.cpu.dcache.LoadLockedReq.missRate::total     0.130435                       # miss rate for LoadLockedReq accesses (Ratio)
system.cpu.dcache.LoadLockedReq.avgMissLatency::cpu.data 79083.333333                       # average LoadLockedReq miss latency ((Tick/Count))
system.cpu.dcache.LoadLockedReq.avgMissLatency::total 79083.333333                       # average LoadLockedReq miss latency ((Tick/Count))
system.cpu.dcache.LoadLockedReq.mshrHits::cpu.data            3                       # number of LoadLockedReq MSHR hits (Count)
system.cpu.dcache.LoadLockedReq.mshrHits::total            3                       # number of LoadLockedReq MSHR hits (Count)
system.cpu.dcache.LoadLockedReq.mshrMisses::cpu.data            3                       # number of LoadLockedReq MSHR misses (Count)
system.cpu.dcache.LoadLockedReq.mshrMisses::total            3                       # number of LoadLockedReq MSHR misses (Count)
system.cpu.dcache.LoadLockedReq.mshrMissLatency::cpu.data       337500                       # number of LoadLockedReq MSHR miss ticks (Tick)
system.cpu.dcache.LoadLockedReq.mshrMissLatency::total       337500                       # number of LoadLockedReq MSHR miss ticks (Tick)
system.cpu.dcache.LoadLockedReq.mshrMissRate::cpu.data     0.065217                       # mshr miss rate for LoadLockedReq accesses (Ratio)
system.cpu.dcache.LoadLockedReq.mshrMissRate::total     0.065217                       # mshr miss rate for LoadLockedReq accesses (Ratio)
system.cpu.dcache.LoadLockedReq.avgMshrMissLatency::cpu.data       112500                       # average LoadLockedReq mshr miss latency ((Tick/Count))
system.cpu.dcache.LoadLockedReq.avgMshrMissLatency::total       112500                       # average LoadLockedReq mshr miss latency ((Tick/Count))
system.cpu.dcache.ReadReq.hits::cpu.data     25840924                       # number of ReadReq hits (Count)
system.cpu.dcache.ReadReq.hits::total        25840924                       # number of ReadReq hits (Count)
system.cpu.dcache.ReadReq.misses::cpu.data        69703                       # number of ReadReq misses (Count)
system.cpu.dcache.ReadReq.misses::total         69703                       # number of ReadReq misses (Count)
system.cpu.dcache.ReadReq.missLatency::cpu.data   4665147000                       # number of ReadReq miss ticks (Tick)
system.cpu.dcache.ReadReq.missLatency::total   4665147000                       # number of ReadReq miss ticks (Tick)
system.cpu.dcache.ReadReq.accesses::cpu.data     25910627                       # number of ReadReq accesses(hits+misses) (Count)
system.cpu.dcache.ReadReq.accesses::total     25910627                       # number of ReadReq accesses(hits+misses) (Count)
system.cpu.dcache.ReadReq.missRate::cpu.data     0.002690                       # miss rate for ReadReq accesses (Ratio)
system.cpu.dcache.ReadReq.missRate::total     0.002690                       # miss rate for ReadReq accesses (Ratio)
system.cpu.dcache.ReadReq.avgMissLatency::cpu.data 66928.927019                       # average ReadReq miss latency ((Tick/Count))
system.cpu.dcache.ReadReq.avgMissLatency::total 66928.927019                       # average ReadReq miss latency ((Tick/Count))
system.cpu.dcache.ReadReq.mshrHits::cpu.data        52749                       # number of ReadReq MSHR hits (Count)
system.cpu.dcache.ReadReq.mshrHits::total        52749                       # number of ReadReq MSHR hits (Count)
system.cpu.dcache.ReadReq.mshrMisses::cpu.data        16954                       # number of ReadReq MSHR misses (Count)
system.cpu.dcache.ReadReq.mshrMisses::total        16954                       # number of ReadReq MSHR misses (Count)
system.cpu.dcache.ReadReq.mshrMissLatency::cpu.data   1269173500                       # number of ReadReq MSHR miss ticks (Tick)
system.cpu.dcache.ReadReq.mshrMissLatency::total   1269173500                       # number of ReadReq MSHR miss ticks (Tick)
system.cpu.dcache.ReadReq.mshrMissRate::cpu.data     0.000654                       # mshr miss rate for ReadReq accesses (Ratio)
system.cpu.dcache.ReadReq.mshrMissRate::total     0.000654                       # mshr miss rate for ReadReq accesses (Ratio)
system.cpu.dcache.ReadReq.avgMshrMissLatency::cpu.data 74859.826590                       # average ReadReq mshr miss latency ((Tick/Count))
system.cpu.dcache.ReadReq.avgMshrMissLatency::total 74859.826590                       # average ReadReq mshr miss latency ((Tick/Count))
system.cpu.dcache.SoftPFReq.hits::cpu.data        77030                       # number of SoftPFReq hits (Count)
system.cpu.dcache.SoftPFReq.hits::total         77030                       # number of SoftPFReq hits (Count)
system.cpu.dcache.SoftPFReq.misses::cpu.data            8                       # number of SoftPFReq misses (Count)
system.cpu.dcache.SoftPFReq.misses::total            8                       # number of SoftPFReq misses (Count)
system.cpu.dcache.SoftPFReq.accesses::cpu.data        77038                       # number of SoftPFReq accesses(hits+misses) (Count)
system.cpu.dcache.SoftPFReq.accesses::total        77038                       # number of SoftPFReq accesses(hits+misses) (Count)
system.cpu.dcache.SoftPFReq.missRate::cpu.data     0.000104                       # miss rate for SoftPFReq accesses (Ratio)
system.cpu.dcache.SoftPFReq.missRate::total     0.000104                       # miss rate for SoftPFReq accesses (Ratio)
system.cpu.dcache.SoftPFReq.mshrMisses::cpu.data            8                       # number of SoftPFReq MSHR misses (Count)
system.cpu.dcache.SoftPFReq.mshrMisses::total            8                       # number of SoftPFReq MSHR misses (Count)
system.cpu.dcache.SoftPFReq.mshrMissLatency::cpu.data       607000                       # number of SoftPFReq MSHR miss ticks (Tick)
system.cpu.dcache.SoftPFReq.mshrMissLatency::total       607000                       # number of SoftPFReq MSHR miss ticks (Tick)
system.cpu.dcache.SoftPFReq.mshrMissRate::cpu.data     0.000104                       # mshr miss rate for SoftPFReq accesses (Ratio)
system.cpu.dcache.SoftPFReq.mshrMissRate::total     0.000104                       # mshr miss rate for SoftPFReq accesses (Ratio)
system.cpu.dcache.SoftPFReq.avgMshrMissLatency::cpu.data        75875                       # average SoftPFReq mshr miss latency ((Tick/Count))
system.cpu.dcache.SoftPFReq.avgMshrMissLatency::total        75875                       # average SoftPFReq mshr miss latency ((Tick/Count))
system.cpu.dcache.StoreCondReq.hits::cpu.data           10                       # number of StoreCondReq hits (Count)
system.cpu.dcache.StoreCondReq.hits::total           10                       # number of StoreCondReq hits (Count)
system.cpu.dcache.StoreCondReq.accesses::cpu.data           10                       # number of StoreCondReq accesses(hits+misses) (Count)
system.cpu.dcache.StoreCondReq.accesses::total           10                       # number of StoreCondReq accesses(hits+misses) (Count)
system.cpu.dcache.SwapReq.hits::cpu.data        98357                       # number of SwapReq hits (Count)
system.cpu.dcache.SwapReq.hits::total           98357                       # number of SwapReq hits (Count)
system.cpu.dcache.SwapReq.misses::cpu.data            1                       # number of SwapReq misses (Count)
system.cpu.dcache.SwapReq.misses::total             1                       # number of SwapReq misses (Count)
system.cpu.dcache.SwapReq.missLatency::cpu.data       153000                       # number of SwapReq miss ticks (Tick)
system.cpu.dcache.SwapReq.missLatency::total       153000                       # number of SwapReq miss ticks (Tick)
system.cpu.dcache.SwapReq.accesses::cpu.data        98358                       # number of SwapReq accesses(hits+misses) (Count)
system.cpu.dcache.SwapReq.accesses::total        98358                       # number of SwapReq accesses(hits+misses) (Count)
system.cpu.dcache.SwapReq.missRate::cpu.data     0.000010                       # miss rate for SwapReq accesses (Ratio)
system.cpu.dcache.SwapReq.missRate::total     0.000010                       # miss rate for SwapReq accesses (Ratio)
system.cpu.dcache.SwapReq.avgMissLatency::cpu.data       153000                       # average SwapReq miss latency ((Tick/Count))
system.cpu.dcache.SwapReq.avgMissLatency::total       153000                       # average SwapReq miss latency ((Tick/Count))
system.cpu.dcache.SwapReq.mshrHits::cpu.data            1                       # number of SwapReq MSHR hits (Count)
system.cpu.dcache.SwapReq.mshrHits::total            1                       # number of SwapReq MSHR hits (Count)
system.cpu.dcache.WriteLineReq.misses::cpu.data         2054                       # number of WriteLineReq misses (Count)
system.cpu.dcache.WriteLineReq.misses::total         2054                       # number of WriteLineReq misses (Count)
system.cpu.dcache.WriteLineReq.missLatency::cpu.data     40470682                       # number of WriteLineReq miss ticks (Tick)
system.cpu.dcache.WriteLineReq.missLatency::total     40470682                       # number of WriteLineReq miss ticks (Tick)
system.cpu.dcache.WriteLineReq.accesses::cpu.data         2054                       # number of WriteLineReq accesses(hits+misses) (Count)
system.cpu.dcache.WriteLineReq.accesses::total         2054                       # number of WriteLineReq accesses(hits+misses) (Count)
system.cpu.dcache.WriteLineReq.missRate::cpu.data            1                       # miss rate for WriteLineReq accesses (Ratio)
system.cpu.dcache.WriteLineReq.missRate::total            1                       # miss rate for WriteLineReq accesses (Ratio)
system.cpu.dcache.WriteLineReq.avgMissLatency::cpu.data 19703.350536                       # average WriteLineReq miss latency ((Tick/Count))
system.cpu.dcache.WriteLineReq.avgMissLatency::total 19703.350536                       # average WriteLineReq miss latency ((Tick/Count))
system.cpu.dcache.WriteLineReq.mshrMisses::cpu.data         2054                       # number of WriteLineReq MSHR misses (Count)
system.cpu.dcache.WriteLineReq.mshrMisses::total         2054                       # number of WriteLineReq MSHR misses (Count)
system.cpu.dcache.WriteLineReq.mshrMissLatency::cpu.data     38416682                       # number of WriteLineReq MSHR miss ticks (Tick)
system.cpu.dcache.WriteLineReq.mshrMissLatency::total     38416682                       # number of WriteLineReq MSHR miss ticks (Tick)
system.cpu.dcache.WriteLineReq.mshrMissRate::cpu.data            1                       # mshr miss rate for WriteLineReq accesses (Ratio)
system.cpu.dcache.WriteLineReq.mshrMissRate::total            1                       # mshr miss rate for WriteLineReq accesses (Ratio)
system.cpu.dcache.WriteLineReq.avgMshrMissLatency::cpu.data 18703.350536                       # average WriteLineReq mshr miss latency ((Tick/Count))
system.cpu.dcache.WriteLineReq.avgMshrMissLatency::total 18703.350536                       # average WriteLineReq mshr miss latency ((Tick/Count))
system.cpu.dcache.WriteReq.hits::cpu.data     15140173                       # number of WriteReq hits (Count)
system.cpu.dcache.WriteReq.hits::total       15140173                       # number of WriteReq hits (Count)
system.cpu.dcache.WriteReq.misses::cpu.data        67734                       # number of WriteReq misses (Count)
system.cpu.dcache.WriteReq.misses::total        67734                       # number of WriteReq misses (Count)
system.cpu.dcache.WriteReq.missLatency::cpu.data   4273506975                       # number of WriteReq miss ticks (Tick)
system.cpu.dcache.WriteReq.missLatency::total   4273506975                       # number of WriteReq miss ticks (Tick)
system.cpu.dcache.WriteReq.accesses::cpu.data     15207907                       # number of WriteReq accesses(hits+misses) (Count)
system.cpu.dcache.WriteReq.accesses::total     15207907                       # number of WriteReq accesses(hits+misses) (Count)
system.cpu.dcache.WriteReq.missRate::cpu.data     0.004454                       # miss rate for WriteReq accesses (Ratio)
system.cpu.dcache.WriteReq.missRate::total     0.004454                       # miss rate for WriteReq accesses (Ratio)
system.cpu.dcache.WriteReq.avgMissLatency::cpu.data 63092.493799                       # average WriteReq miss latency ((Tick/Count))
system.cpu.dcache.WriteReq.avgMissLatency::total 63092.493799                       # average WriteReq miss latency ((Tick/Count))
system.cpu.dcache.WriteReq.mshrHits::cpu.data        54127                       # number of WriteReq MSHR hits (Count)
system.cpu.dcache.WriteReq.mshrHits::total        54127                       # number of WriteReq MSHR hits (Count)
system.cpu.dcache.WriteReq.mshrMisses::cpu.data        13607                       # number of WriteReq MSHR misses (Count)
system.cpu.dcache.WriteReq.mshrMisses::total        13607                       # number of WriteReq MSHR misses (Count)
system.cpu.dcache.WriteReq.mshrMissLatency::cpu.data    962169994                       # number of WriteReq MSHR miss ticks (Tick)
system.cpu.dcache.WriteReq.mshrMissLatency::total    962169994                       # number of WriteReq MSHR miss ticks (Tick)
system.cpu.dcache.WriteReq.mshrMissRate::cpu.data     0.000895                       # mshr miss rate for WriteReq accesses (Ratio)
system.cpu.dcache.WriteReq.mshrMissRate::total     0.000895                       # mshr miss rate for WriteReq accesses (Ratio)
system.cpu.dcache.WriteReq.avgMshrMissLatency::cpu.data 70711.398104                       # average WriteReq mshr miss latency ((Tick/Count))
system.cpu.dcache.WriteReq.avgMshrMissLatency::total 70711.398104                       # average WriteReq mshr miss latency ((Tick/Count))
system.cpu.dcache.power_state.pwrStateResidencyTicks::UNDEFINED  32295168500                       # Cumulative time (in ticks) in various power states (Tick)
system.cpu.dcache.tags.tagsInUse          1975.647681                       # Average ticks per tags in use ((Tick/Count))
system.cpu.dcache.tags.totalRefs             41189160                       # Total number of references to valid blocks. (Count)
system.cpu.dcache.tags.sampledRefs              32626                       # Sample count of references to valid blocks. (Count)
system.cpu.dcache.tags.avgRefs            1262.464292                       # Average number of references to valid blocks. ((Count/Count))
system.cpu.dcache.tags.warmupTick              145000                       # The tick when the warmup percentage was hit. (Tick)
system.cpu.dcache.tags.occupancies::cpu.data  1975.647681                       # Average occupied blocks per tick, per requestor ((Count/Tick))
system.cpu.dcache.tags.avgOccs::cpu.data     0.964672                       # Average percentage of cache occupancy ((Ratio/Tick))
system.cpu.dcache.tags.avgOccs::total        0.964672                       # Average percentage of cache occupancy ((Ratio/Tick))
system.cpu.dcache.tags.occupanciesTaskId::1024         2048                       # Occupied blocks per task id (Count)
system.cpu.dcache.tags.ageTaskId_1024::0           72                       # Occupied blocks per task id, per block age (Count)
system.cpu.dcache.tags.ageTaskId_1024::1            8                       # Occupied blocks per task id, per block age (Count)
system.cpu.dcache.tags.ageTaskId_1024::2          125                       # Occupied blocks per task id, per block age (Count)
system.cpu.dcache.tags.ageTaskId_1024::3          476                       # Occupied blocks per task id, per block age (Count)
system.cpu.dcache.tags.ageTaskId_1024::4         1367                       # Occupied blocks per task id, per block age (Count)
system.cpu.dcache.tags.ratioOccsTaskId::1024            1                       # Ratio of occupied blocks and all blocks, per task id (Ratio)
system.cpu.dcache.tags.tagAccesses           82624706                       # Number of tag accesses (Count)
system.cpu.dcache.tags.dataAccesses          82624706                       # Number of data accesses (Count)
system.cpu.dcache.tags.power_state.pwrStateResidencyTicks::UNDEFINED  32295168500                       # Cumulative time (in ticks) in various power states (Tick)
system.cpu.decode.idleCycles                 22049749                       # Number of cycles decode is idle (Cycle)
system.cpu.decode.blockedCycles              10673370                       # Number of cycles decode is blocked (Cycle)
system.cpu.decode.runCycles                  27554213                       # Number of cycles decode is running (Cycle)
system.cpu.decode.unblockCycles               2187804                       # Number of cycles decode is unblocking (Cycle)
system.cpu.decode.squashCycles                 268016                       # Number of cycles decode is squashing (Cycle)
system.cpu.decode.branchResolved             14051410                       # Number of times decode resolved a branch (Count)
system.cpu.decode.branchMispred                 13383                       # Number of times decode detected a branch misprediction (Count)
system.cpu.decode.decodedInsts              157815256                       # Number of instructions handled by decode (Count)
system.cpu.decode.squashedInsts                 95809                       # Number of squashed instructions handled by decode (Count)
system.cpu.fetch.icacheStallCycles           25036626                       # Number of cycles fetch is stalled on an Icache miss (Cycle)
system.cpu.fetch.insts                      147630890                       # Number of instructions fetch has processed (Count)
system.cpu.fetch.branches                    26020601                       # Number of branches that fetch encountered (Count)
system.cpu.fetch.predictedBranches           15672847                       # Number of branches that fetch has predicted taken (Count)
system.cpu.fetch.cycles                      37415028                       # Number of cycles fetch has run and was not squashing or blocked (Cycle)
system.cpu.fetch.squashCycles                  562780                       # Number of cycles fetch has spent squashing (Cycle)
system.cpu.fetch.miscStallCycles                    7                       # Number of cycles fetch has spent waiting on interrupts, or bad addresses, or out of MSHRs (Cycle)
system.cpu.fetch.icacheWaitRetryStallCycles          101                       # Number of stall cycles due to full MSHR (Cycle)
system.cpu.fetch.cacheLines                  22263376                       # Number of cache lines fetched (Count)
system.cpu.fetch.icacheSquashes                119214                       # Number of outstanding Icache misses that were squashed (Count)
system.cpu.fetch.nisnDist::samples           62733152                       # Number of instructions fetched each cycle (Total) (Count)
system.cpu.fetch.nisnDist::mean              2.561190                       # Number of instructions fetched each cycle (Total) (Count)
system.cpu.fetch.nisnDist::stdev             3.147287                       # Number of instructions fetched each cycle (Total) (Count)
system.cpu.fetch.nisnDist::underflows               0      0.00%      0.00% # Number of instructions fetched each cycle (Total) (Count)
system.cpu.fetch.nisnDist::0                 30843217     49.17%     49.17% # Number of instructions fetched each cycle (Total) (Count)
system.cpu.fetch.nisnDist::1                  5155892      8.22%     57.38% # Number of instructions fetched each cycle (Total) (Count)
system.cpu.fetch.nisnDist::2                  2680647      4.27%     61.66% # Number of instructions fetched each cycle (Total) (Count)
system.cpu.fetch.nisnDist::3                  2189136      3.49%     65.15% # Number of instructions fetched each cycle (Total) (Count)
system.cpu.fetch.nisnDist::4                  4410773      7.03%     72.18% # Number of instructions fetched each cycle (Total) (Count)
system.cpu.fetch.nisnDist::5                  1866618      2.98%     75.15% # Number of instructions fetched each cycle (Total) (Count)
system.cpu.fetch.nisnDist::6                  1896461      3.02%     78.18% # Number of instructions fetched each cycle (Total) (Count)
system.cpu.fetch.nisnDist::7                  4291259      6.84%     85.02% # Number of instructions fetched each cycle (Total) (Count)
system.cpu.fetch.nisnDist::8                  9399149     14.98%    100.00% # Number of instructions fetched each cycle (Total) (Count)
system.cpu.fetch.nisnDist::overflows                0      0.00%    100.00% # Number of instructions fetched each cycle (Total) (Count)
system.cpu.fetch.nisnDist::min_value                0                       # Number of instructions fetched each cycle (Total) (Count)
system.cpu.fetch.nisnDist::max_value                8                       # Number of instructions fetched each cycle (Total) (Count)
system.cpu.fetch.nisnDist::total             62733152                       # Number of instructions fetched each cycle (Total) (Count)
system.cpu.fetch.branchRate                  0.402856                       # Number of branch fetches per cycle (Ratio)
system.cpu.fetch.rate                        2.285650                       # Number of inst fetches per cycle ((Count/Cycle))
system.cpu.icache.demandHits::cpu.inst       22154926                       # number of demand (read+write) hits (Count)
system.cpu.icache.demandHits::total          22154926                       # number of demand (read+write) hits (Count)
system.cpu.icache.overallHits::cpu.inst      22154926                       # number of overall hits (Count)
system.cpu.icache.overallHits::total         22154926                       # number of overall hits (Count)
system.cpu.icache.demandMisses::cpu.inst       108450                       # number of demand (read+write) misses (Count)
system.cpu.icache.demandMisses::total          108450                       # number of demand (read+write) misses (Count)
system.cpu.icache.overallMisses::cpu.inst       108450                       # number of overall misses (Count)
system.cpu.icache.overallMisses::total         108450                       # number of overall misses (Count)
system.cpu.icache.demandMissLatency::cpu.inst   2513970496                       # number of demand (read+write) miss ticks (Tick)
system.cpu.icache.demandMissLatency::total   2513970496                       # number of demand (read+write) miss ticks (Tick)
system.cpu.icache.overallMissLatency::cpu.inst   2513970496                       # number of overall miss ticks (Tick)
system.cpu.icache.overallMissLatency::total   2513970496                       # number of overall miss ticks (Tick)
system.cpu.icache.demandAccesses::cpu.inst     22263376                       # number of demand (read+write) accesses (Count)
system.cpu.icache.demandAccesses::total      22263376                       # number of demand (read+write) accesses (Count)
system.cpu.icache.overallAccesses::cpu.inst     22263376                       # number of overall (read+write) accesses (Count)
system.cpu.icache.overallAccesses::total     22263376                       # number of overall (read+write) accesses (Count)
system.cpu.icache.demandMissRate::cpu.inst     0.004871                       # miss rate for demand accesses (Ratio)
system.cpu.icache.demandMissRate::total      0.004871                       # miss rate for demand accesses (Ratio)
system.cpu.icache.overallMissRate::cpu.inst     0.004871                       # miss rate for overall accesses (Ratio)
system.cpu.icache.overallMissRate::total     0.004871                       # miss rate for overall accesses (Ratio)
system.cpu.icache.demandAvgMissLatency::cpu.inst 23180.917437                       # average overall miss latency ((Cycle/Count))
system.cpu.icache.demandAvgMissLatency::total 23180.917437                       # average overall miss latency ((Cycle/Count))
system.cpu.icache.overallAvgMissLatency::cpu.inst 23180.917437                       # average overall miss latency ((Cycle/Count))
system.cpu.icache.overallAvgMissLatency::total 23180.917437                       # average overall miss latency ((Cycle/Count))
system.cpu.icache.blockedCycles::no_mshrs         1495                       # number of cycles access was blocked (Cycle)
system.cpu.icache.blockedCycles::no_targets            0                       # number of cycles access was blocked (Cycle)
system.cpu.icache.blockedCauses::no_mshrs           18                       # number of times access was blocked (Count)
system.cpu.icache.blockedCauses::no_targets            0                       # number of times access was blocked (Count)
system.cpu.icache.avgBlocked::no_mshrs      83.055556                       # average number of cycles each access was blocked ((Cycle/Count))
system.cpu.icache.avgBlocked::no_targets          nan                       # average number of cycles each access was blocked ((Cycle/Count))
system.cpu.icache.writebacks::writebacks       102810                       # number of writebacks (Count)
system.cpu.icache.writebacks::total            102810                       # number of writebacks (Count)
system.cpu.icache.demandMshrHits::cpu.inst         5139                       # number of demand (read+write) MSHR hits (Count)
system.cpu.icache.demandMshrHits::total          5139                       # number of demand (read+write) MSHR hits (Count)
system.cpu.icache.overallMshrHits::cpu.inst         5139                       # number of overall MSHR hits (Count)
system.cpu.icache.overallMshrHits::total         5139                       # number of overall MSHR hits (Count)
system.cpu.icache.demandMshrMisses::cpu.inst       103311                       # number of demand (read+write) MSHR misses (Count)
system.cpu.icache.demandMshrMisses::total       103311                       # number of demand (read+write) MSHR misses (Count)
system.cpu.icache.overallMshrMisses::cpu.inst       103311                       # number of overall MSHR misses (Count)
system.cpu.icache.overallMshrMisses::total       103311                       # number of overall MSHR misses (Count)
system.cpu.icache.demandMshrMissLatency::cpu.inst   2325444498                       # number of demand (read+write) MSHR miss ticks (Tick)
system.cpu.icache.demandMshrMissLatency::total   2325444498                       # number of demand (read+write) MSHR miss ticks (Tick)
system.cpu.icache.overallMshrMissLatency::cpu.inst   2325444498                       # number of overall MSHR miss ticks (Tick)
system.cpu.icache.overallMshrMissLatency::total   2325444498                       # number of overall MSHR miss ticks (Tick)
system.cpu.icache.demandMshrMissRate::cpu.inst     0.004640                       # mshr miss ratio for demand accesses (Ratio)
system.cpu.icache.demandMshrMissRate::total     0.004640                       # mshr miss ratio for demand accesses (Ratio)
system.cpu.icache.overallMshrMissRate::cpu.inst     0.004640                       # mshr miss ratio for overall accesses (Ratio)
system.cpu.icache.overallMshrMissRate::total     0.004640                       # mshr miss ratio for overall accesses (Ratio)
system.cpu.icache.demandAvgMshrMissLatency::cpu.inst 22509.166478                       # average overall mshr miss latency ((Cycle/Count))
system.cpu.icache.demandAvgMshrMissLatency::total 22509.166478                       # average overall mshr miss latency ((Cycle/Count))
system.cpu.icache.overallAvgMshrMissLatency::cpu.inst 22509.166478                       # average overall mshr miss latency ((Cycle/Count))
system.cpu.icache.overallAvgMshrMissLatency::total 22509.166478                       # average overall mshr miss latency ((Cycle/Count))
system.cpu.icache.replacements                 102810                       # number of replacements (Count)
system.cpu.icache.ReadReq.hits::cpu.inst     22154926                       # number of ReadReq hits (Count)
system.cpu.icache.ReadReq.hits::total        22154926                       # number of ReadReq hits (Count)
system.cpu.icache.ReadReq.misses::cpu.inst       108450                       # number of ReadReq misses (Count)
system.cpu.icache.ReadReq.misses::total        108450                       # number of ReadReq misses (Count)
system.cpu.icache.ReadReq.missLatency::cpu.inst   2513970496                       # number of ReadReq miss ticks (Tick)
system.cpu.icache.ReadReq.missLatency::total   2513970496                       # number of ReadReq miss ticks (Tick)
system.cpu.icache.ReadReq.accesses::cpu.inst     22263376                       # number of ReadReq accesses(hits+misses) (Count)
system.cpu.icache.ReadReq.accesses::total     22263376                       # number of ReadReq accesses(hits+misses) (Count)
system.cpu.icache.ReadReq.missRate::cpu.inst     0.004871                       # miss rate for ReadReq accesses (Ratio)
system.cpu.icache.ReadReq.missRate::total     0.004871                       # miss rate for ReadReq accesses (Ratio)
system.cpu.icache.ReadReq.avgMissLatency::cpu.inst 23180.917437                       # average ReadReq miss latency ((Tick/Count))
system.cpu.icache.ReadReq.avgMissLatency::total 23180.917437                       # average ReadReq miss latency ((Tick/Count))
system.cpu.icache.ReadReq.mshrHits::cpu.inst         5139                       # number of ReadReq MSHR hits (Count)
system.cpu.icache.ReadReq.mshrHits::total         5139                       # number of ReadReq MSHR hits (Count)
system.cpu.icache.ReadReq.mshrMisses::cpu.inst       103311                       # number of ReadReq MSHR misses (Count)
system.cpu.icache.ReadReq.mshrMisses::total       103311                       # number of ReadReq MSHR misses (Count)
system.cpu.icache.ReadReq.mshrMissLatency::cpu.inst   2325444498                       # number of ReadReq MSHR miss ticks (Tick)
system.cpu.icache.ReadReq.mshrMissLatency::total   2325444498                       # number of ReadReq MSHR miss ticks (Tick)
system.cpu.icache.ReadReq.mshrMissRate::cpu.inst     0.004640                       # mshr miss rate for ReadReq accesses (Ratio)
system.cpu.icache.ReadReq.mshrMissRate::total     0.004640                       # mshr miss rate for ReadReq accesses (Ratio)
system.cpu.icache.ReadReq.avgMshrMissLatency::cpu.inst 22509.166478                       # average ReadReq mshr miss latency ((Tick/Count))
system.cpu.icache.ReadReq.avgMshrMissLatency::total 22509.166478                       # average ReadReq mshr miss latency ((Tick/Count))
system.cpu.icache.power_state.pwrStateResidencyTicks::UNDEFINED  32295168500                       # Cumulative time (in ticks) in various power states (Tick)
system.cpu.icache.tags.tagsInUse           494.511177                       # Average ticks per tags in use ((Tick/Count))
system.cpu.icache.tags.totalRefs             22258236                       # Total number of references to valid blocks. (Count)
system.cpu.icache.tags.sampledRefs             103310                       # Sample count of references to valid blocks. (Count)
system.cpu.icache.tags.avgRefs             215.450934                       # Average number of references to valid blocks. ((Count/Count))
system.cpu.icache.tags.warmupTick               77000                       # The tick when the warmup percentage was hit. (Tick)
system.cpu.icache.tags.occupancies::cpu.inst   494.511177                       # Average occupied blocks per tick, per requestor ((Count/Tick))
system.cpu.icache.tags.avgOccs::cpu.inst     0.965842                       # Average percentage of cache occupancy ((Ratio/Tick))
system.cpu.icache.tags.avgOccs::total        0.965842                       # Average percentage of cache occupancy ((Ratio/Tick))
system.cpu.icache.tags.occupanciesTaskId::1024          500                       # Occupied blocks per task id (Count)
system.cpu.icache.tags.ageTaskId_1024::0           96                       # Occupied blocks per task id, per block age (Count)
system.cpu.icache.tags.ageTaskId_1024::2            1                       # Occupied blocks per task id, per block age (Count)
system.cpu.icache.tags.ageTaskId_1024::3            2                       # Occupied blocks per task id, per block age (Count)
system.cpu.icache.tags.ageTaskId_1024::4          401                       # Occupied blocks per task id, per block age (Count)
system.cpu.icache.tags.ratioOccsTaskId::1024     0.976562                       # Ratio of occupied blocks and all blocks, per task id (Ratio)
system.cpu.icache.tags.tagAccesses           44630062                       # Number of tag accesses (Count)
system.cpu.icache.tags.dataAccesses          44630062                       # Number of data accesses (Count)
system.cpu.icache.tags.power_state.pwrStateResidencyTicks::UNDEFINED  32295168500                       # Cumulative time (in ticks) in various power states (Tick)
system.cpu.iew.idleCycles                           0                       # Number of cycles IEW is idle (Cycle)
system.cpu.iew.squashCycles                    268016                       # Number of cycles IEW is squashing (Cycle)
system.cpu.iew.blockCycles                    1959584                       # Number of cycles IEW is blocking (Cycle)
[...]
system.mem_ctrls.dram.bwRead::cpu.inst      204731553                       # Total read bandwidth from this memory ((Byte/Second))
system.mem_ctrls.dram.bwRead::cpu.data       60519765                       # Total read bandwidth from this memory ((Byte/Second))
system.mem_ctrls.dram.bwRead::total         265251318                       # Total read bandwidth from this memory ((Byte/Second))
system.mem_ctrls.dram.bwInstRead::cpu.inst    204731553                       # Instruction read bandwidth from this memory ((Byte/Second))
system.mem_ctrls.dram.bwInstRead::total     204731553                       # Instruction read bandwidth from this memory ((Byte/Second))
system.mem_ctrls.dram.bwWrite::writebacks     33310741                       # Write bandwidth from this memory ((Byte/Second))
system.mem_ctrls.dram.bwWrite::total         33310741                       # Write bandwidth from this memory ((Byte/Second))
system.mem_ctrls.dram.bwTotal::writebacks     33310741                       # Total bandwidth to/from this memory ((Byte/Second))
system.mem_ctrls.dram.bwTotal::cpu.inst     204731553                       # Total bandwidth to/from this memory ((Byte/Second))
system.mem_ctrls.dram.bwTotal::cpu.data      60519765                       # Total bandwidth to/from this memory ((Byte/Second))
system.mem_ctrls.dram.bwTotal::total        298562059                       # Total bandwidth to/from this memory ((Byte/Second))
system.mem_ctrls.dram.readBursts                32197                       # Number of DRAM read bursts (Count)
system.mem_ctrls.dram.writeBursts               18396                       # Number of DRAM write bursts (Count)
system.mem_ctrls.dram.perBankRdBursts::0         1826                       # Per bank write bursts (Count)
system.mem_ctrls.dram.perBankRdBursts::1         1870                       # Per bank write bursts (Count)
system.mem_ctrls.dram.perBankRdBursts::2         1927                       # Per bank write bursts (Count)
system.mem_ctrls.dram.perBankRdBursts::3         2221                       # Per bank write bursts (Count)
system.mem_ctrls.dram.perBankRdBursts::4         2486                       # Per bank write bursts (Count)
system.mem_ctrls.dram.perBankRdBursts::5         2620                       # Per bank write bursts (Count)
system.mem_ctrls.dram.perBankRdBursts::6         2402                       # Per bank write bursts (Count)
system.mem_ctrls.dram.perBankRdBursts::7         2120                       # Per bank write bursts (Count)
system.mem_ctrls.dram.perBankRdBursts::8         1792                       # Per bank write bursts (Count)
system.mem_ctrls.dram.perBankRdBursts::9         1814                       # Per bank write bursts (Count)
system.mem_ctrls.dram.perBankRdBursts::10         1747                       # Per bank write bursts (Count)
system.mem_ctrls.dram.perBankRdBursts::11         1929                       # Per bank write bursts (Count)
system.mem_ctrls.dram.perBankRdBursts::12         1889                       # Per bank write bursts (Count)
system.mem_ctrls.dram.perBankRdBursts::13         1868                       # Per bank write bursts (Count)
system.mem_ctrls.dram.perBankRdBursts::14         1837                       # Per bank write bursts (Count)
system.mem_ctrls.dram.perBankRdBursts::15         1849                       # Per bank write bursts (Count)
system.mem_ctrls.dram.perBankWrBursts::0          991                       # Per bank write bursts (Count)
system.mem_ctrls.dram.perBankWrBursts::1          999                       # Per bank write bursts (Count)
system.mem_ctrls.dram.perBankWrBursts::2         1095                       # Per bank write bursts (Count)
system.mem_ctrls.dram.perBankWrBursts::3         1295                       # Per bank write bursts (Count)
system.mem_ctrls.dram.perBankWrBursts::4         1416                       # Per bank write bursts (Count)
system.mem_ctrls.dram.perBankWrBursts::5         1441                       # Per bank write bursts (Count)
system.mem_ctrls.dram.perBankWrBursts::6         1328                       # Per bank write bursts (Count)
system.mem_ctrls.dram.perBankWrBursts::7         1111                       # Per bank write bursts (Count)
system.mem_ctrls.dram.perBankWrBursts::8          988                       # Per bank write bursts (Count)
system.mem_ctrls.dram.perBankWrBursts::9         1090                       # Per bank write bursts (Count)
system.mem_ctrls.dram.perBankWrBursts::10          944                       # Per bank write bursts (Count)
system.mem_ctrls.dram.perBankWrBursts::11         1221                       # Per bank write bursts (Count)
system.mem_ctrls.dram.perBankWrBursts::12         1091                       # Per bank write bursts (Count)
system.mem_ctrls.dram.perBankWrBursts::13         1263                       # Per bank write bursts (Count)
system.mem_ctrls.dram.perBankWrBursts::14         1054                       # Per bank write bursts (Count)
system.mem_ctrls.dram.perBankWrBursts::15         1069                       # Per bank write bursts (Count)
system.mem_ctrls.dram.totQLat               706080500                       # Total ticks spent queuing (Tick)
system.mem_ctrls.dram.totBusLat             160985000                       # Total ticks spent in databus transfers (Tick)
system.mem_ctrls.dram.totMemAccLat         1309774250                       # Total ticks spent from burst creation until serviced by the DRAM (Tick)
system.mem_ctrls.dram.avgQLat                21930.01                       # Average queueing delay per DRAM burst ((Tick/Count))
system.mem_ctrls.dram.avgBusLat               5000.00                       # Average bus latency per DRAM burst ((Tick/Count))
system.mem_ctrls.dram.avgMemAccLat           40680.01                       # Average memory access latency per DRAM burst ((Tick/Count))
system.mem_ctrls.dram.readRowHits               24036                       # Number of row buffer hits during reads (Count)
system.mem_ctrls.dram.writeRowHits              16109                       # Number of row buffer hits during writes (Count)
system.mem_ctrls.dram.readRowHitRate            74.65                       # Row buffer hit rate for reads (Ratio)
system.mem_ctrls.dram.writeRowHitRate           87.57                       # Row buffer hit rate for writes (Ratio)
system.mem_ctrls.dram.bytesPerActivate::samples        10434                       # Bytes accessed per row activation (Byte)
system.mem_ctrls.dram.bytesPerActivate::mean   310.106191                       # Bytes accessed per row activation (Byte)
system.mem_ctrls.dram.bytesPerActivate::gmean   210.632828                       # Bytes accessed per row activation (Byte)
system.mem_ctrls.dram.bytesPerActivate::stdev   285.156923                       # Bytes accessed per row activation (Byte)
system.mem_ctrls.dram.bytesPerActivate::0-127         2777     26.61%     26.61% # Bytes accessed per row activation (Byte)
system.mem_ctrls.dram.bytesPerActivate::128-255         1707     16.36%     42.97% # Bytes accessed per row activation (Byte)
system.mem_ctrls.dram.bytesPerActivate::256-383         4110     39.39%     82.37% # Bytes accessed per row activation (Byte)
system.mem_ctrls.dram.bytesPerActivate::384-511          258      2.47%     84.84% # Bytes accessed per row activation (Byte)
system.mem_ctrls.dram.bytesPerActivate::512-639          117      1.12%     85.96% # Bytes accessed per row activation (Byte)
system.mem_ctrls.dram.bytesPerActivate::640-767          149      1.43%     87.39% # Bytes accessed per row activation (Byte)
system.mem_ctrls.dram.bytesPerActivate::768-895          185      1.77%     89.16% # Bytes accessed per row activation (Byte)
system.mem_ctrls.dram.bytesPerActivate::896-1023          173      1.66%     90.82% # Bytes accessed per row activation (Byte)
system.mem_ctrls.dram.bytesPerActivate::1024-1151          958      9.18%    100.00% # Bytes accessed per row activation (Byte)
system.mem_ctrls.dram.bytesPerActivate::total        10434                       # Bytes accessed per row activation (Byte)
system.mem_ctrls.dram.bytesRead               2060608                       # Total bytes read (Byte)
system.mem_ctrls.dram.bytesWritten            1177344                       # Total bytes written (Byte)
system.mem_ctrls.dram.avgRdBW               63.805457                       # Average DRAM read bandwidth in MiBytes/s ((Byte/Second))
system.mem_ctrls.dram.avgWrBW               36.455732                       # Average DRAM write bandwidth in MiBytes/s ((Byte/Second))
system.mem_ctrls.dram.peakBW                 12800.00                       # Theoretical peak bandwidth in MiByte/s ((Byte/Second))
system.mem_ctrls.dram.busUtil                    0.78                       # Data bus utilization in percentage (Ratio)
system.mem_ctrls.dram.busUtilRead                0.50                       # Data bus utilization in percentage for reads (Ratio)
system.mem_ctrls.dram.busUtilWrite               0.28                       # Data bus utilization in percentage for writes (Ratio)
system.mem_ctrls.dram.pageHitRate               79.35                       # Row buffer hit rate, read and write combined (Ratio)
system.mem_ctrls.dram.power_state.pwrStateResidencyTicks::UNDEFINED  32295168500                       # Cumulative time (in ticks) in various power states (Tick)
system.mem_ctrls.dram.rank0.actEnergy        41319180                       # Energy for activate commands per rank (pJ) (Joule)
system.mem_ctrls.dram.rank0.preEnergy        21938895                       # Energy for precharge commands per rank (pJ) (Joule)
system.mem_ctrls.dram.rank0.readEnergy      124742940                       # Energy for read commands per rank (pJ) (Joule)
system.mem_ctrls.dram.rank0.writeEnergy      50508720                       # Energy for write commands per rank (pJ) (Joule)
system.mem_ctrls.dram.rank0.refreshEnergy 2548912080.000000                       # Energy for refresh commands per rank (pJ) (Joule)
system.mem_ctrls.dram.rank0.actBackEnergy   4749149940                       # Energy for active background per rank (pJ) (Joule)
system.mem_ctrls.dram.rank0.preBackEnergy   8402060640                       # Energy for precharge background per rank (pJ) (Joule)
system.mem_ctrls.dram.rank0.actPowerDownEnergy            0                       # Energy for active power-down per rank (pJ) (Joule)
system.mem_ctrls.dram.rank0.prePowerDownEnergy            0                       # Energy for precharge power-down per rank (pJ) (Joule)
system.mem_ctrls.dram.rank0.selfRefreshEnergy            0                       # Energy for self refresh per rank (pJ) (Joule)
system.mem_ctrls.dram.rank0.totalEnergy   15938632395                       # Total energy per rank (pJ) (Joule)
system.mem_ctrls.dram.rank0.averagePower   493.529935                       # Core power per rank (mW) (Watt)
system.mem_ctrls.dram.rank0.totalIdleTime            0                       # Total Idle time Per DRAM Rank (Tick)
system.mem_ctrls.dram.rank0.pwrStateTime::IDLE  21783802250                       # Time in different power states (Tick)
system.mem_ctrls.dram.rank0.pwrStateTime::REF   1078220000                       # Time in different power states (Tick)
system.mem_ctrls.dram.rank0.pwrStateTime::SREF            0                       # Time in different power states (Tick)
system.mem_ctrls.dram.rank0.pwrStateTime::PRE_PDN            0                       # Time in different power states (Tick)
system.mem_ctrls.dram.rank0.pwrStateTime::ACT   9433146250                       # Time in different power states (Tick)
system.mem_ctrls.dram.rank0.pwrStateTime::ACT_PDN            0                       # Time in different power states (Tick)
system.mem_ctrls.dram.rank1.actEnergy        33272400                       # Energy for activate commands per rank (pJ) (Joule)
system.mem_ctrls.dram.rank1.preEnergy        17658135                       # Energy for precharge commands per rank (pJ) (Joule)
system.mem_ctrls.dram.rank1.readEnergy      105136500                       # Energy for read commands per rank (pJ) (Joule)
system.mem_ctrls.dram.rank1.writeEnergy      45518400                       # Energy for write commands per rank (pJ) (Joule)
system.mem_ctrls.dram.rank1.refreshEnergy 2548912080.000000                       # Energy for refresh commands per rank (pJ) (Joule)
system.mem_ctrls.dram.rank1.actBackEnergy   4173115920                       # Energy for active background per rank (pJ) (Joule)
system.mem_ctrls.dram.rank1.preBackEnergy   8887141920                       # Energy for precharge background per rank (pJ) (Joule)
system.mem_ctrls.dram.rank1.actPowerDownEnergy            0                       # Energy for active power-down per rank (pJ) (Joule)
system.mem_ctrls.dram.rank1.prePowerDownEnergy            0                       # Energy for precharge power-down per rank (pJ) (Joule)
system.mem_ctrls.dram.rank1.selfRefreshEnergy            0                       # Energy for self refresh per rank (pJ) (Joule)
system.mem_ctrls.dram.rank1.totalEnergy   15810755355                       # Total energy per rank (pJ) (Joule)
system.mem_ctrls.dram.rank1.averagePower   489.570301                       # Core power per rank (mW) (Watt)
system.mem_ctrls.dram.rank1.totalIdleTime            0                       # Total Idle time Per DRAM Rank (Tick)
system.mem_ctrls.dram.rank1.pwrStateTime::IDLE  23053803000                       # Time in different power states (Tick)
system.mem_ctrls.dram.rank1.pwrStateTime::REF   1078220000                       # Time in different power states (Tick)
system.mem_ctrls.dram.rank1.pwrStateTime::SREF            0                       # Time in different power states (Tick)
system.mem_ctrls.dram.rank1.pwrStateTime::PRE_PDN            0                       # Time in different power states (Tick)
system.mem_ctrls.dram.rank1.pwrStateTime::ACT   8163145500                       # Time in different power states (Tick)
system.mem_ctrls.dram.rank1.pwrStateTime::ACT_PDN            0                       # Time in different power states (Tick)
system.mem_ctrls.power_state.pwrStateResidencyTicks::UNDEFINED  32295168500                       # Cumulative time (in ticks) in various power states (Tick)
system.membus.transDist::ReadResp              120274                       # Transaction distribution (Count)
system.membus.transDist::WritebackDirty         16809                       # Transaction distribution (Count)
system.membus.transDist::WritebackClean        102810                       # Transaction distribution (Count)
system.membus.transDist::CleanEvict             13769                       # Transaction distribution (Count)
system.membus.transDist::ReadExReq              13575                       # Transaction distribution (Count)
system.membus.transDist::ReadExResp             13575                       # Transaction distribution (Count)
system.membus.transDist::ReadCleanReq          103311                       # Transaction distribution (Count)
system.membus.transDist::ReadSharedReq          16964                       # Transaction distribution (Count)
system.membus.transDist::InvalidateReq           2087                       # Transaction distribution (Count)
system.membus.pktCount_system.cpu.icache.mem_side_port::system.mem_ctrls.port       309431                       # Packet count per connected requestor and responder (Count)
system.membus.pktCount_system.cpu.dcache.mem_side_port::system.mem_ctrls.port        93743                       # Packet count per connected requestor and responder (Count)
system.membus.pktCount::total                  403174                       # Packet count per connected requestor and responder (Count)
system.membus.pktSize_system.cpu.icache.mem_side_port::system.mem_ctrls.port     13191680                       # Cumulative packet size per connected requestor and responder (Byte)
system.membus.pktSize_system.cpu.dcache.mem_side_port::system.mem_ctrls.port      3030272                       # Cumulative packet size per connected requestor and responder (Byte)
system.membus.pktSize::total                 16221952                       # Cumulative packet size per connected requestor and responder (Byte)
system.membus.snoops                                0                       # Total snoops (Count)
system.membus.snoopTraffic                          0                       # Total snoop traffic (Byte)
system.membus.snoopFanout::samples             135937                       # Request fanout histogram (Count)
system.membus.snoopFanout::mean              0.000015                       # Request fanout histogram (Count)
system.membus.snoopFanout::stdev             0.003836                       # Request fanout histogram (Count)
system.membus.snoopFanout::underflows               0      0.00%      0.00% # Request fanout histogram (Count)
system.membus.snoopFanout::0                   135935    100.00%    100.00% # Request fanout histogram (Count)
system.membus.snoopFanout::1                        2      0.00%    100.00% # Request fanout histogram (Count)
system.membus.snoopFanout::2                        0      0.00%    100.00% # Request fanout histogram (Count)
system.membus.snoopFanout::overflows                0      0.00%    100.00% # Request fanout histogram (Count)
system.membus.snoopFanout::min_value                0                       # Request fanout histogram (Count)
system.membus.snoopFanout::max_value                1                       # Request fanout histogram (Count)
system.membus.snoopFanout::total               135937                       # Request fanout histogram (Count)
system.membus.power_state.pwrStateResidencyTicks::UNDEFINED  32295168500                       # Cumulative time (in ticks) in various power states (Tick)
system.membus.reqLayer0.occupancy           769241750                       # Layer occupancy (ticks) (Tick)
system.membus.reqLayer0.utilization               0.0                       # Layer utilization (Ratio)
system.membus.respLayer1.occupancy          517111250                       # Layer occupancy (ticks) (Tick)
system.membus.respLayer1.utilization              0.0                       # Layer utilization (Ratio)
system.membus.respLayer2.occupancy          159958250                       # Layer occupancy (ticks) (Tick)
system.membus.respLayer2.utilization              0.0                       # Layer utilization (Ratio)
system.membus.snoop_filter.totRequests         269331                       # Total number of requests made to the snoop filter. (Count)
system.membus.snoop_filter.hitSingleRequests       133395                       # Number of requests hitting in the snoop filter with a single holder of the requested data. (Count)
system.membus.snoop_filter.hitMultiRequests            1                       # Number of requests hitting in the snoop filter with multiple (>1) holders of the requested data. (Count)
system.membus.snoop_filter.totSnoops                0                       # Total number of snoops made to the snoop filter. (Count)
system.membus.snoop_filter.hitSingleSnoops            0                       # Number of snoops hitting in the snoop filter with a single holder of the requested data. (Count)
system.membus.snoop_filter.hitMultiSnoops            0                       # Number of snoops hitting in the snoop filter with multiple (>1) holders of the requested data. (Count)
system.voltage_domain.voltage                       1                       # Voltage in Volts (Volt)
system.workload.inst.arm                            0                       # number of arm instructions executed (Count)
system.workload.inst.quiesce                        0                       # number of quiesce instructions executed (Count)

---------- End Simulation Statistics   ----------
