
---------- Begin Simulation Statistics ----------
simSeconds                                   0.015711                       # Number of seconds simulated (Second)
simTicks                                  15710513500                       # Number of ticks simulated (Tick)
finalTick                                 15710513500                       # Number of ticks from beginning of simulation (restored from checkpoints and never reset) (Tick)
simFreq                                  1000000000000                       # The number of ticks per simulated second ((Tick/Second))
hostSeconds                                     92.88                       # Real time elapsed on the host (Second)
hostTickRate                                169151122                       # The number of ticks simulated per host second (ticks/s) ((Tick/Second))
hostMemory                                     680488                       # Number of bytes of host memory used (Byte)
simInsts                                     66840229                       # Number of instructions simulated (Count)
simOps                                       74292666                       # Number of ops (including micro ops) simulated (Count)
hostInstRate                                   719651                       # Simulator instruction rate (inst/s) ((Count/Second))
hostOpRate                                     799890                       # Simulator op (including micro ops) rate (op/s) ((Count/Second))
system.clk_domain.clock                          1000                       # Clock period in ticks (Tick)
system.cpu.numCycles                         31421028                       # Number of cpu cycles simulated (Cycle)
system.cpu.numWorkItemsStarted                      0                       # Number of work items this cpu started (Count)
system.cpu.numWorkItemsCompleted                    0                       # Number of work items this cpu completed (Count)
system.cpu.instsAdded                        78772090                       # Number of instructions added to the IQ (excludes non-spec) (Count)
system.cpu.nonSpecInstsAdded                   196981                       # Number of non-speculative instructions added to the IQ (Count)
system.cpu.instsIssued                       78726167                       # Number of instructions issued (Count)
system.cpu.squashedInstsIssued                 262319                       # Number of squashed instructions issued (Count)
system.cpu.squashedInstsExamined              4676404                       # Number of squashed instructions iterated over during squash; mainly for profiling (Count)
system.cpu.squashedOperandsExamined           3712019                       # Number of squashed operands that are examined and possibly removed from graph (Count)
system.cpu.squashedNonSpecRemoved                 171                       # Number of squashed non-spec instructions that were removed (Count)
system.cpu.numIssuedDist::samples            31098747                       # Number of insts issued each cycle (Count)
system.cpu.numIssuedDist::mean               2.531490                       # Number of insts issued each cycle (Count)
system.cpu.numIssuedDist::stdev              2.295186                       # Number of insts issued each cycle (Count)
system.cpu.numIssuedDist::underflows                0      0.00%      0.00% # Number of insts issued each cycle (Count)
system.cpu.numIssuedDist::0                   8138150     26.17%     26.17% # Number of insts issued each cycle (Count)
system.cpu.numIssuedDist::1                   4620521     14.86%     41.03% # Number of insts issued each cycle (Count)
system.cpu.numIssuedDist::2                   4368803     14.05%     55.07% # Number of insts issued each cycle (Count)
system.cpu.numIssuedDist::3                   4431655     14.25%     69.32% # Number of insts issued each cycle (Count)
system.cpu.numIssuedDist::4                   3184319     10.24%     79.56% # Number of insts issued each cycle (Count)
system.cpu.numIssuedDist::5                   1967658      6.33%     85.89% # Number of insts issued each cycle (Count)
system.cpu.numIssuedDist::6                   2121482      6.82%     92.71% # Number of insts issued each cycle (Count)
system.cpu.numIssuedDist::7                   1360655      4.38%     97.09% # Number of insts issued each cycle (Count)
system.cpu.numIssuedDist::8                    905504      2.91%    100.00% # Number of insts issued each cycle (Count)
system.cpu.numIssuedDist::overflows                 0      0.00%    100.00% # Number of insts issued each cycle (Count)
system.cpu.numIssuedDist::min_value                 0                       # Number of insts issued each cycle (Count)
system.cpu.numIssuedDist::max_value                 8                       # Number of insts issued each cycle (Count)
system.cpu.numIssuedDist::total              31098747                       # Number of insts issued each cycle (Count)
system.cpu.statFuBusy::No_OpClass                   0      0.00%      0.00% # attempts to use FU when none available (Count)
system.cpu.statFuBusy::IntAlu                  349552     13.87%     13.87% # attempts to use FU when none available (Count)
system.cpu.statFuBusy::IntMult                 137763      5.47%     19.34% # attempts to use FU when none available (Count)
system.cpu.statFuBusy::IntDiv                       0      0.00%     19.34% # attempts to use FU when none available (Count)
system.cpu.statFuBusy::FloatAdd                     0      0.00%     19.34% # attempts to use FU when none available (Count)
system.cpu.statFuBusy::FloatCmp                     0      0.00%     19.34% # attempts to use FU when none available (Count)
system.cpu.statFuBusy::FloatCvt                     0      0.00%     19.34% # attempts to use FU when none available (Count)
system.cpu.statFuBusy::FloatMult                    0      0.00%     19.34% # attempts to use FU when none available (Count)
system.cpu.statFuBusy::FloatMultAcc                 0      0.00%     19.34% # attempts to use FU when none available (Count)
system.cpu.statFuBusy::FloatDiv                     0      0.00%     19.34% # attempts to use FU when none available (Count)
system.cpu.statFuBusy::FloatMisc                    0      0.00%     19.34% # attempts to use FU when none available (Count)
system.cpu.statFuBusy::FloatSqrt                    0      0.00%     19.34% # attempts to use FU when none available (Count)
system.cpu.statFuBusy::SimdAdd                      0      0.00%     19.34% # attempts to use FU when none available (Count)
system.cpu.statFuBusy::SimdAddAcc                   0      0.00%     19.34% # attempts to use FU when none available (Count)
system.cpu.statFuBusy::SimdAlu                      1      0.00%     19.34% # attempts to use FU when none available (Count)
system.cpu.statFuBusy::SimdCmp                      6      0.00%     19.34% # attempts to use FU when none available (Count)
system.cpu.statFuBusy::SimdCvt                      0      0.00%     19.34% # attempts to use FU when none available (Count)
system.cpu.statFuBusy::SimdMisc                     0      0.00%     19.34% # attempts to use FU when none available (Count)
system.cpu.statFuBusy::SimdMult                     0      0.00%     19.34% # attempts to use FU when none available (Count)
system.cpu.statFuBusy::SimdMultAcc                  0      0.00%     19.34% # attempts to use FU when none available (Count)
system.cpu.statFuBusy::SimdShift                    0      0.00%     19.34% # attempts to use FU when none available (Count)
system.cpu.statFuBusy::SimdShiftAcc                 0      0.00%     19.34% # attempts to use FU when none available (Count)
system.cpu.statFuBusy::SimdDiv                      0      0.00%     19.34% # attempts to use FU when none available (Count)
system.cpu.statFuBusy::SimdSqrt                     0      0.00%     19.34% # attempts to use FU when none available (Count)
system.cpu.statFuBusy::SimdFloatAdd                 0      0.00%     19.34% # attempts to use FU when none available (Count)
system.cpu.statFuBusy::SimdFloatAlu                 0      0.00%     19.34% # attempts to use FU when none available (Count)
system.cpu.statFuBusy::SimdFloatCmp                 0      0.00%     19.34% # attempts to use FU when none available (Count)
system.cpu.statFuBusy::SimdFloatCvt                 0      0.00%     19.34% # attempts to use FU when none available (Count)
system.cpu.statFuBusy::SimdFloatDiv                 0      0.00%     19.34% # attempts to use FU when none available (Count)
system.cpu.statFuBusy::SimdFloatMisc                0      0.00%     19.34% # attempts to use FU when none available (Count)
system.cpu.statFuBusy::SimdFloatMult                0      0.00%     19.34% # attempts to use FU when none available (Count)
system.cpu.statFuBusy::SimdFloatMultAcc             0      0.00%     19.34% # attempts to use FU when none available (Count)
system.cpu.statFuBusy::SimdFloatSqrt                0      0.00%     19.34% # attempts to use FU when none available (Count)
system.cpu.statFuBusy::SimdReduceAdd                0      0.00%     19.34% # attempts to use FU when none available (Count)
system.cpu.statFuBusy::SimdReduceAlu                0      0.00%     19.34% # attempts to use FU when none available (Count)
system.cpu.statFuBusy::SimdReduceCmp                0      0.00%     19.34% # attempts to use FU when none available (Count)
system.cpu.statFuBusy::SimdFloatReduceAdd            0      0.00%     19.34% # attempts to use FU when none available (Count)
system.cpu.statFuBusy::SimdFloatReduceCmp            0      0.00%     19.34% # attempts to use FU when none available (Count)
system.cpu.statFuBusy::SimdAes                      0      0.00%     19.34% # attempts to use FU when none available (Count)
system.cpu.statFuBusy::SimdAesMix                   0      0.00%     19.34% # attempts to use FU when none available (Count)
system.cpu.statFuBusy::SimdSha1Hash                 0      0.00%     19.34% # attempts to use FU when none available (Count)
system.cpu.statFuBusy::SimdSha1Hash2                0      0.00%     19.34% # attempts to use FU when none available (Count)
system.cpu.statFuBusy::SimdSha256Hash               0      0.00%     19.34% # attempts to use FU when none available (Count)
system.cpu.statFuBusy::SimdSha256Hash2              0      0.00%     19.34% # attempts to use FU when none available (Count)
system.cpu.statFuBusy::SimdShaSigma2                0      0.00%     19.34% # attempts to use FU when none available (Count)
system.cpu.statFuBusy::SimdShaSigma3                0      0.00%     19.34% # attempts to use FU when none available (Count)
system.cpu.statFuBusy::SimdPredAlu                  0      0.00%     19.34% # attempts to use FU when none available (Count)
system.cpu.statFuBusy::MemRead                 953540     37.84%     57.18% # attempts to use FU when none available (Count)
system.cpu.statFuBusy::MemWrite               1079143     42.82%    100.00% # attempts to use FU when none available (Count)
system.cpu.statFuBusy::FloatMemRead                 0      0.00%    100.00% # attempts to use FU when none available (Count)
system.cpu.statFuBusy::FloatMemWrite                0      0.00%    100.00% # attempts to use FU when none available (Count)
system.cpu.statFuBusy::IprAccess                    0      0.00%    100.00% # attempts to use FU when none available (Count)
system.cpu.statFuBusy::InstPrefetch                 0      0.00%    100.00% # attempts to use FU when none available (Count)
system.cpu.statIssuedInstType_0::No_OpClass       131151      0.17%      0.17% # Number of instructions issued per FU type, per thread (Count)
system.cpu.statIssuedInstType_0::IntAlu      51399683     65.29%     65.46% # Number of instructions issued per FU type, per thread (Count)
system.cpu.statIssuedInstType_0::IntMult       601847      0.76%     66.22% # Number of instructions issued per FU type, per thread (Count)
system.cpu.statIssuedInstType_0::IntDiv         25586      0.03%     66.25% # Number of instructions issued per FU type, per thread (Count)
system.cpu.statIssuedInstType_0::FloatAdd         2135      0.00%     66.26% # Number of instructions issued per FU type, per thread (Count)
system.cpu.statIssuedInstType_0::FloatCmp        66488      0.08%     66.34% # Number of instructions issued per FU type, per thread (Count)
system.cpu.statIssuedInstType_0::FloatCvt            0      0.00%     66.34% # Number of instructions issued per FU type, per thread (Count)
system.cpu.statIssuedInstType_0::FloatMult         1604      0.00%     66.34% # Number of instructions issued per FU type, per thread (Count)
system.cpu.statIssuedInstType_0::FloatMultAcc            0      0.00%     66.34% # Number of instructions issued per FU type, per thread (Count)
system.cpu.statIssuedInstType_0::FloatDiv            0      0.00%     66.34% # Number of instructions issued per FU type, per thread (Count)
system.cpu.statIssuedInstType_0::FloatMisc        52427      0.07%     66.41% # Number of instructions issued per FU type, per thread (Count)
system.cpu.statIssuedInstType_0::FloatSqrt            0      0.00%     66.41% # Number of instructions issued per FU type, per thread (Count)
system.cpu.statIssuedInstType_0::SimdAdd        65577      0.08%     66.49% # Number of instructions issued per FU type, per thread (Count)
system.cpu.statIssuedInstType_0::SimdAddAcc            0      0.00%     66.49% # Number of instructions issued per FU type, per thread (Count)
system.cpu.statIssuedInstType_0::SimdAlu       131131      0.17%     66.66% # Number of instructions issued per FU type, per thread (Count)
system.cpu.statIssuedInstType_0::SimdCmp       131132      0.17%     66.82% # Number of instructions issued per FU type, per thread (Count)
system.cpu.statIssuedInstType_0::SimdCvt            0      0.00%     66.82% # Number of instructions issued per FU type, per thread (Count)
system.cpu.statIssuedInstType_0::SimdMisc       130292      0.17%     66.99% # Number of instructions issued per FU type, per thread (Count)
system.cpu.statIssuedInstType_0::SimdMult            0      0.00%     66.99% # Number of instructions issued per FU type, per thread (Count)
system.cpu.statIssuedInstType_0::SimdMultAcc            0      0.00%     66.99% # Number of instructions issued per FU type, per thread (Count)
system.cpu.statIssuedInstType_0::SimdShift            0      0.00%     66.99% # Number of instructions issued per FU type, per thread (Count)
system.cpu.statIssuedInstType_0::SimdShiftAcc            0      0.00%     66.99% # Number of instructions issued per FU type, per thread (Count)
system.cpu.statIssuedInstType_0::SimdDiv            0      0.00%     66.99% # Number of instructions issued per FU type, per thread (Count)
system.cpu.statIssuedInstType_0::SimdSqrt            0      0.00%     66.99% # Number of instructions issued per FU type, per thread (Count)
system.cpu.statIssuedInstType_0::SimdFloatAdd            0      0.00%     66.99% # Number of instructions issued per FU type, per thread (Count)
system.cpu.statIssuedInstType_0::SimdFloatAlu            0      0.00%     66.99% # Number of instructions issued per FU type, per thread (Count)
system.cpu.statIssuedInstType_0::SimdFloatCmp            0      0.00%     66.99% # Number of instructions issued per FU type, per thread (Count)
system.cpu.statIssuedInstType_0::SimdFloatCvt            0      0.00%     66.99% # Number of instructions issued per FU type, per thread (Count)
system.cpu.statIssuedInstType_0::SimdFloatDiv            0      0.00%     66.99% # Number of instructions issued per FU type, per thread (Count)
system.cpu.statIssuedInstType_0::SimdFloatMisc            0      0.00%     66.99% # Number of instructions issued per FU type, per thread (Count)
system.cpu.statIssuedInstType_0::SimdFloatMult            0      0.00%     66.99% # Number of instructions issued per FU type, per thread (Count)
system.cpu.statIssuedInstType_0::SimdFloatMultAcc            0      0.00%     66.99% # Number of instructions issued per FU type, per thread (Count)
system.cpu.statIssuedInstType_0::SimdFloatSqrt            0      0.00%     66.99% # Number of instructions issued per FU type, per thread (Count)
system.cpu.statIssuedInstType_0::SimdReduceAdd            0      0.00%     66.99% # Number of instructions issued per FU type, per thread (Count)
system.cpu.statIssuedInstType_0::SimdReduceAlu            0      0.00%     66.99% # Number of instructions issued per FU type, per thread (Count)
system.cpu.statIssuedInstType_0::SimdReduceCmp            0      0.00%     66.99% # Number of instructions issued per FU type, per thread (Count)
system.cpu.statIssuedInstType_0::SimdFloatReduceAdd            0      0.00%     66.99% # Number of instructions issued per FU type, per thread (Count)
system.cpu.statIssuedInstType_0::SimdFloatReduceCmp            0      0.00%     66.99% # Number of instructions issued per FU type, per thread (Count)
system.cpu.statIssuedInstType_0::SimdAes            0      0.00%     66.99% # Number of instructions issued per FU type, per thread (Count)
system.cpu.statIssuedInstType_0::SimdAesMix            0      0.00%     66.99% # Number of instructions issued per FU type, per thread (Count)
system.cpu.statIssuedInstType_0::SimdSha1Hash            0      0.00%     66.99% # Number of instructions issued per FU type, per thread (Count)
system.cpu.statIssuedInstType_0::SimdSha1Hash2            0      0.00%     66.99% # Number of instructions issued per FU type, per thread (Count)
system.cpu.statIssuedInstType_0::SimdSha256Hash            0      0.00%     66.99% # Number of instructions issued per FU type, per thread (Count)
system.cpu.statIssuedInstType_0::SimdSha256Hash2            0      0.00%     66.99% # Number of instructions issued per FU type, per thread (Count)
system.cpu.statIssuedInstType_0::SimdShaSigma2            0      0.00%     66.99% # Number of instructions issued per FU type, per thread (Count)
system.cpu.statIssuedInstType_0::SimdShaSigma3            0      0.00%     66.99% # Number of instructions issued per FU type, per thread (Count)
system.cpu.statIssuedInstType_0::SimdPredAlu            0      0.00%     66.99% # Number of instructions issued per FU type, per thread (Count)
system.cpu.statIssuedInstType_0::MemRead     14809182     18.81%     85.80% # Number of instructions issued per FU type, per thread (Count)
system.cpu.statIssuedInstType_0::MemWrite     11177932     14.20%    100.00% # Number of instructions issued per FU type, per thread (Count)
system.cpu.statIssuedInstType_0::FloatMemRead            0      0.00%    100.00% # Number of instructions issued per FU type, per thread (Count)
system.cpu.statIssuedInstType_0::FloatMemWrite            0      0.00%    100.00% # Number of instructions issued per FU type, per thread (Count)
system.cpu.statIssuedInstType_0::IprAccess            0      0.00%    100.00% # Number of instructions issued per FU type, per thread (Count)
system.cpu.statIssuedInstType_0::InstPrefetch            0      0.00%    100.00% # Number of instructions issued per FU type, per thread (Count)
system.cpu.statIssuedInstType_0::total       78726167                       # Number of instructions issued per FU type, per thread (Count)
system.cpu.issueRate                         2.505525                       # Inst issue rate ((Count/Cycle))
system.cpu.fuBusy                             2520005                       # FU busy when requested (Count)
system.cpu.fuBusyRate                        0.032010                       # FU busy rate (busy events/executed inst) ((Count/Count))
system.cpu.intInstQueueReads                186428881                       # Number of integer instruction queue reads (Count)
system.cpu.intInstQueueWrites                80471700                       # Number of integer instruction queue writes (Count)
system.cpu.intInstQueueWakeupAccesses        75294246                       # Number of integer instruction queue wakeup accesses (Count)
system.cpu.fpInstQueueReads                         0                       # Number of floating instruction queue reads (Count)
system.cpu.fpInstQueueWrites                        0                       # Number of floating instruction queue writes (Count)
system.cpu.fpInstQueueWakeupAccesses                0                       # Number of floating instruction queue wakeup accesses (Count)
system.cpu.vecInstQueueReads                  4904524                       # Number of vector instruction queue reads (Count)
system.cpu.vecInstQueueWrites                 3224796                       # Number of vector instruction queue writes (Count)
system.cpu.vecInstQueueWakeupAccesses         1957657                       # Number of vector instruction queue wakeup accesses (Count)
system.cpu.intAluAccesses                    78602980                       # Number of integer alu accesses (Count)
system.cpu.fpAluAccesses                            0                       # Number of floating point alu accesses (Count)
system.cpu.vecAluAccesses                     2512041                       # Number of vector alu accesses (Count)
system.cpu.numInsts                          78304296                       # Number of executed instructions (Count)
system.cpu.numLoadInsts                      14776157                       # Number of load instructions executed (Count)
system.cpu.numSquashedInsts                    421871                       # Number of squashed instructions skipped in execute (Count)
system.cpu.numSwp                                   0                       # Number of swp insts executed (Count)
system.cpu.numNop                              102170                       # Number of nop insts executed (Count)
system.cpu.numRefs                           25731724                       # Number of memory reference insts executed (Count)
system.cpu.numBranches                       13198201                       # Number of branches executed (Count)
system.cpu.numStoreInsts                     10955567                       # Number of stores executed (Count)
system.cpu.numRate                           2.492098                       # Inst execution rate ((Count/Cycle))
system.cpu.timesIdled                           12460                       # Number of times that the entire CPU went into an idle state and unscheduled itself (Count)
system.cpu.idleCycles                          322281                       # Total number of cycles that the CPU has spent unscheduled due to idling (Cycle)
system.cpu.committedInsts                    66840229                       # Number of Instructions Simulated (Count)
system.cpu.committedOps                      74292666                       # Number of Ops (including micro ops) Simulated (Count)
system.cpu.cpi                               0.470092                       # CPI: Cycles Per Instruction ((Cycle/Count))
system.cpu.totalCpi                          0.470092                       # CPI: Total CPI of All Threads ((Cycle/Count))
system.cpu.ipc                               2.127245                       # IPC: Instructions Per Cycle ((Count/Cycle))
system.cpu.totalIpc                          2.127245                       # IPC: Total IPC of All Threads ((Count/Cycle))
system.cpu.intRegfileReads                   90966866                       # Number of integer regfile reads (Count)
system.cpu.intRegfileWrites                  54972116                       # Number of integer regfile writes (Count)
system.cpu.vecRegfileReads                    2084290                       # number of vector regfile reads (Count)
system.cpu.vecRegfileWrites                    684243                       # number of vector regfile writes (Count)
system.cpu.ccRegfileReads                    24194721                       # number of cc regfile reads (Count)
system.cpu.ccRegfileWrites                   24049166                       # number of cc regfile writes (Count)
system.cpu.miscRegfileReads                 146804427                       # number of misc regfile reads (Count)
system.cpu.miscRegfileWrites                   282127                       # number of misc regfile writes (Count)
system.cpu.MemDepUnit__0.insertedLoads       14039490                       # Number of loads inserted to the mem dependence unit. (Count)
system.cpu.MemDepUnit__0.insertedStores      11808931                       # Number of stores inserted to the mem dependence unit. (Count)
system.cpu.MemDepUnit__0.conflictingLoads      2798006                       # Number of conflicting loads. (Count)
system.cpu.MemDepUnit__0.conflictingStores      1415682                       # Number of conflicting stores. (Count)
system.cpu.MemDepUnit__1.insertedLoads              0                       # Number of loads inserted to the mem dependence unit. (Count)
system.cpu.MemDepUnit__1.insertedStores             0                       # Number of stores inserted to the mem dependence unit. (Count)
system.cpu.MemDepUnit__1.conflictingLoads            0                       # Number of conflicting loads. (Count)
system.cpu.MemDepUnit__1.conflictingStores            0                       # Number of conflicting stores. (Count)
system.cpu.MemDepUnit__2.insertedLoads              0                       # Number of loads inserted to the mem dependence unit. (Count)
system.cpu.MemDepUnit__2.insertedStores             0                       # Number of stores inserted to the mem dependence unit. (Count)
system.cpu.MemDepUnit__2.conflictingLoads            0                       # Number of conflicting loads. (Count)
system.cpu.MemDepUnit__2.conflictingStores            0                       # Number of conflicting stores. (Count)
system.cpu.MemDepUnit__3.insertedLoads              0                       # Number of loads inserted to the mem dependence unit. (Count)
system.cpu.MemDepUnit__3.insertedStores             0                       # Number of stores inserted to the mem dependence unit. (Count)
system.cpu.MemDepUnit__3.conflictingLoads            0                       # Number of conflicting loads. (Count)
system.cpu.MemDepUnit__3.conflictingStores            0                       # Number of conflicting stores. (Count)
system.cpu.branchPred.lookups                13544133                       # Number of BP lookups (Count)
system.cpu.branchPred.condPredicted          10203828                       # Number of conditional branches predicted (Count)
system.cpu.branchPred.condIncorrect             65784                       # Number of conditional branches incorrect (Count)
system.cpu.branchPred.BTBLookups              6593206                       # Number of BTB lookups (Count)
system.cpu.branchPred.BTBHits                 6585213                       # Number of BTB hits (Count)
system.cpu.branchPred.BTBHitRatio            0.998788                       # BTB Hit Ratio (Ratio)
system.cpu.branchPred.RASUsed                  859062                       # Number of times the RAS was used to get a target. (Count)
system.cpu.branchPred.RASIncorrect                 28                       # Number of incorrect RAS predictions. (Count)
system.cpu.branchPred.indirectLookups          203151                       # Number of indirect predictor lookups. (Count)
system.cpu.branchPred.indirectHits             188078                       # Number of indirect target hits. (Count)
system.cpu.branchPred.indirectMisses            15073                       # Number of indirect misses. (Count)
system.cpu.branchPred.indirectMispredicted          198                       # Number of mispredicted indirect branches. (Count)
system.cpu.commit.commitSquashedInsts         4678311                       # The number of squashed insts skipped by commit (Count)
system.cpu.commit.commitNonSpecStalls          196810                       # The number of times commit has been forced to stall to communicate backwards (Count)
system.cpu.commit.branchMispredicts             63833                       # The number of times a branch was mispredicted (Count)
system.cpu.commit.numCommittedDist::samples     30443788                       # Number of insts commited each cycle (Count)
system.cpu.commit.numCommittedDist::mean     2.443617                       # Number of insts commited each cycle (Count)
system.cpu.commit.numCommittedDist::stdev     2.968794                       # Number of insts commited each cycle (Count)
system.cpu.commit.numCommittedDist::underflows            0      0.00%      0.00% # Number of insts commited each cycle (Count)
system.cpu.commit.numCommittedDist::0        11261474     36.99%     36.99% # Number of insts commited each cycle (Count)
system.cpu.commit.numCommittedDist::1         6333469     20.80%     57.79% # Number of insts commited each cycle (Count)
system.cpu.commit.numCommittedDist::2         2937445      9.65%     67.44% # Number of insts commited each cycle (Count)
system.cpu.commit.numCommittedDist::3         1850397      6.08%     73.52% # Number of insts commited each cycle (Count)
system.cpu.commit.numCommittedDist::4         1049394      3.45%     76.97% # Number of insts commited each cycle (Count)
system.cpu.commit.numCommittedDist::5          583669      1.92%     78.89% # Number of insts commited each cycle (Count)
system.cpu.commit.numCommittedDist::6          597504      1.96%     80.85% # Number of insts commited each cycle (Count)
system.cpu.commit.numCommittedDist::7          711039      2.34%     83.18% # Number of insts commited each cycle (Count)
system.cpu.commit.numCommittedDist::8         5119397     16.82%    100.00% # Number of insts commited each cycle (Count)
system.cpu.commit.numCommittedDist::overflows            0      0.00%    100.00% # Number of insts commited each cycle (Count)
system.cpu.commit.numCommittedDist::min_value            0                       # Number of insts commited each cycle (Count)
system.cpu.commit.numCommittedDist::max_value            8                       # Number of insts commited each cycle (Count)
system.cpu.commit.numCommittedDist::total     30443788                       # Number of insts commited each cycle (Count)
system.cpu.commit.instsCommitted             66940507                       # Number of instructions committed (Count)
system.cpu.commit.opsCommitted               74392944                       # Number of ops (including micro ops) committed (Count)
system.cpu.commit.memRefs                    23654156                       # Number of memory references committed (Count)
system.cpu.commit.loads                      13485207                       # Number of loads committed (Count)
system.cpu.commit.amos                          98358                       # Number of atomic instructions committed (Count)
system.cpu.commit.membars                       98368                       # Number of memory barriers committed (Count)
system.cpu.commit.branches                   13008661                       # Number of branches committed (Count)
system.cpu.commit.vectorInstructions          1601490                       # Number of committed Vector instructions. (Count)
system.cpu.commit.floating                          0                       # Number of committed floating point instructions. (Count)
system.cpu.commit.integer                    66318195                       # Number of committed integer instructions. (Count)
system.cpu.commit.functionCalls                844597                       # Number of function calls committed. (Count)
system.cpu.commit.committedInstType_0::No_OpClass       131142      0.18%      0.18% # Class of committed instruction (Count)
system.cpu.commit.committedInstType_0::IntAlu     49401909     66.41%     66.58% # Class of committed instruction (Count)
system.cpu.commit.committedInstType_0::IntMult       601583      0.81%     67.39% # Class of committed instruction (Count)
system.cpu.commit.committedInstType_0::IntDiv        25526      0.03%     67.43% # Class of committed instruction (Count)
system.cpu.commit.committedInstType_0::FloatAdd         2135      0.00%     67.43% # Class of committed instruction (Count)
system.cpu.commit.committedInstType_0::FloatCmp        65536      0.09%     67.52% # Class of committed instruction (Count)
system.cpu.commit.committedInstType_0::FloatCvt            0      0.00%     67.52% # Class of committed instruction (Count)
system.cpu.commit.committedInstType_0::FloatMult         1315      0.00%     67.52% # Class of committed instruction (Count)
system.cpu.commit.committedInstType_0::FloatMultAcc            0      0.00%     67.52% # Class of committed instruction (Count)
system.cpu.commit.committedInstType_0::FloatDiv            0      0.00%     67.52% # Class of committed instruction (Count)
system.cpu.commit.committedInstType_0::FloatMisc        51612      0.07%     67.59% # Class of committed instruction (Count)
system.cpu.commit.committedInstType_0::FloatSqrt            0      0.00%     67.59% # Class of committed instruction (Count)
system.cpu.commit.committedInstType_0::SimdAdd        65560      0.09%     67.68% # Class of committed instruction (Count)
system.cpu.commit.committedInstType_0::SimdAddAcc            0      0.00%     67.68% # Class of committed instruction (Count)
system.cpu.commit.committedInstType_0::SimdAlu       131100      0.18%     67.85% # Class of committed instruction (Count)
system.cpu.commit.committedInstType_0::SimdCmp       131096      0.18%     68.03% # Class of committed instruction (Count)
system.cpu.commit.committedInstType_0::SimdCvt            0      0.00%     68.03% # Class of committed instruction (Count)
system.cpu.commit.committedInstType_0::SimdMisc       130274      0.18%     68.20% # Class of committed instruction (Count)
system.cpu.commit.committedInstType_0::SimdMult            0      0.00%     68.20% # Class of committed instruction (Count)
system.cpu.commit.committedInstType_0::SimdMultAcc            0      0.00%     68.20% # Class of committed instruction (Count)
system.cpu.commit.committedInstType_0::SimdShift            0      0.00%     68.20% # Class of committed instruction (Count)
system.cpu.commit.committedInstType_0::SimdShiftAcc            0      0.00%     68.20% # Class of committed instruction (Count)
system.cpu.commit.committedInstType_0::SimdDiv            0      0.00%     68.20% # Class of committed instruction (Count)
system.cpu.commit.committedInstType_0::SimdSqrt            0      0.00%     68.20% # Class of committed instruction (Count)
system.cpu.commit.committedInstType_0::SimdFloatAdd            0      0.00%     68.20% # Class of committed instruction (Count)
system.cpu.commit.committedInstType_0::SimdFloatAlu            0      0.00%     68.20% # Class of committed instruction (Count)
system.cpu.commit.committedInstType_0::SimdFloatCmp            0      0.00%     68.20% # Class of committed instruction (Count)
system.cpu.commit.committedInstType_0::SimdFloatCvt            0      0.00%     68.20% # Class of committed instruction (Count)
system.cpu.commit.committedInstType_0::SimdFloatDiv            0      0.00%     68.20% # Class of committed instruction (Count)
system.cpu.commit.committedInstType_0::SimdFloatMisc            0      0.00%     68.20% # Class of committed instruction (Count)
system.cpu.commit.committedInstType_0::SimdFloatMult            0      0.00%     68.20% # Class of committed instruction (Count)
system.cpu.commit.committedInstType_0::SimdFloatMultAcc            0      0.00%     68.20% # Class of committed instruction (Count)
system.cpu.commit.committedInstType_0::SimdFloatSqrt            0      0.00%     68.20% # Class of committed instruction (Count)
system.cpu.commit.committedInstType_0::SimdReduceAdd            0      0.00%     68.20% # Class of committed instruction (Count)
system.cpu.commit.committedInstType_0::SimdReduceAlu            0      0.00%     68.20% # Class of committed instruction (Count)
system.cpu.commit.committedInstType_0::SimdReduceCmp            0      0.00%     68.20% # Class of committed instruction (Count)
system.cpu.commit.committedInstType_0::SimdFloatReduceAdd            0      0.00%     68.20% # Class of committed instruction (Count)
system.cpu.commit.committedInstType_0::SimdFloatReduceCmp            0      0.00%     68.20% # Class of committed instruction (Count)
system.cpu.commit.committedInstType_0::SimdAes            0      0.00%     68.20% # Class of committed instruction (Count)
system.cpu.commit.committedInstType_0::SimdAesMix            0      0.00%     68.20% # Class of committed instruction (Count)
system.cpu.commit.committedInstType_0::SimdSha1Hash            0      0.00%     68.20% # Class of committed instruction (Count)
system.cpu.commit.committedInstType_0::SimdSha1Hash2            0      0.00%     68.20% # Class of committed instruction (Count)
system.cpu.commit.committedInstType_0::SimdSha256Hash            0      0.00%     68.20% # Class of committed instruction (Count)
system.cpu.commit.committedInstType_0::SimdSha256Hash2            0      0.00%     68.20% # Class of committed instruction (Count)
system.cpu.commit.committedInstType_0::SimdShaSigma2            0      0.00%     68.20% # Class of committed instruction (Count)
system.cpu.commit.committedInstType_0::SimdShaSigma3            0      0.00%     68.20% # Class of committed instruction (Count)
system.cpu.commit.committedInstType_0::SimdPredAlu            0      0.00%     68.20% # Class of committed instruction (Count)
system.cpu.commit.committedInstType_0::MemRead     13485207     18.13%     86.33% # Class of committed instruction (Count)
system.cpu.commit.committedInstType_0::MemWrite     10168949     13.67%    100.00% # Class of committed instruction (Count)
system.cpu.commit.committedInstType_0::FloatMemRead            0      0.00%    100.00% # Class of committed instruction (Count)
system.cpu.commit.committedInstType_0::FloatMemWrite            0      0.00%    100.00% # Class of committed instruction (Count)
system.cpu.commit.committedInstType_0::IprAccess            0      0.00%    100.00% # Class of committed instruction (Count)
system.cpu.commit.committedInstType_0::InstPrefetch            0      0.00%    100.00% # Class of committed instruction (Count)
system.cpu.commit.committedInstType_0::total     74392944                       # Class of committed instruction (Count)
system.cpu.commit.commitEligibleSamples       5119397                       # number cycles where commit BW limit reached (Cycle)
system.cpu.dcache.demandHits::cpu.data       22207820                       # number of demand (read+write) hits (Count)
system.cpu.dcache.demandHits::total          22207820                       # number of demand (read+write) hits (Count)
system.cpu.dcache.overallHits::cpu.data      22246570                       # number of overall hits (Count)
system.cpu.dcache.overallHits::total         22246570                       # number of overall hits (Count)
system.cpu.dcache.demandMisses::cpu.data       138318                       # number of demand (read+write) misses (Count)
system.cpu.dcache.demandMisses::total          138318                       # number of demand (read+write) misses (Count)
system.cpu.dcache.overallMisses::cpu.data       138323                       # number of overall misses (Count)
system.cpu.dcache.overallMisses::total         138323                       # number of overall misses (Count)
system.cpu.dcache.demandMissLatency::cpu.data   9856007944                       # number of demand (read+write) miss ticks (Tick)
system.cpu.dcache.demandMissLatency::total   9856007944                       # number of demand (read+write) miss ticks (Tick)
system.cpu.dcache.overallMissLatency::cpu.data   9856007944                       # number of overall miss ticks (Tick)
system.cpu.dcache.overallMissLatency::total   9856007944                       # number of overall miss ticks (Tick)
system.cpu.dcache.demandAccesses::cpu.data     22346138                       # number of demand (read+write) accesses (Count)
system.cpu.dcache.demandAccesses::total      22346138                       # number of demand (read+write) accesses (Count)
system.cpu.dcache.overallAccesses::cpu.data     22384893                       # number of overall (read+write) accesses (Count)
system.cpu.dcache.overallAccesses::total     22384893                       # number of overall (read+write) accesses (Count)
system.cpu.dcache.demandMissRate::cpu.data     0.006190                       # miss rate for demand accesses (Ratio)
system.cpu.dcache.demandMissRate::total      0.006190                       # miss rate for demand accesses (Ratio)
system.cpu.dcache.overallMissRate::cpu.data     0.006179                       # miss rate for overall accesses (Ratio)
system.cpu.dcache.overallMissRate::total     0.006179                       # miss rate for overall accesses (Ratio)
system.cpu.dcache.demandAvgMissLatency::cpu.data 71256.148469                       # average overall miss latency ((Cycle/Count))
system.cpu.dcache.demandAvgMissLatency::total 71256.148469                       # average overall miss latency ((Cycle/Count))
system.cpu.dcache.overallAvgMissLatency::cpu.data 71253.572754                       # average overall miss latency ((Cycle/Count))
system.cpu.dcache.overallAvgMissLatency::total 71253.572754                       # average overall miss latency ((Cycle/Count))
system.cpu.dcache.blockedCycles::no_mshrs       804974                       # number of cycles access was blocked (Cycle)
system.cpu.dcache.blockedCycles::no_targets           39                       # number of cycles access was blocked (Cycle)
system.cpu.dcache.blockedCauses::no_mshrs        17990                       # number of times access was blocked (Count)
system.cpu.dcache.blockedCauses::no_targets            1                       # number of times access was blocked (Count)
system.cpu.dcache.avgBlocked::no_mshrs      44.745636                       # average number of cycles each access was blocked ((Cycle/Count))
system.cpu.dcache.avgBlocked::no_targets           39                       # average number of cycles each access was blocked ((Cycle/Count))
system.cpu.dcache.writebacks::writebacks        16026                       # number of writebacks (Count)
system.cpu.dcache.writebacks::total             16026                       # number of writebacks (Count)
system.cpu.dcache.demandMshrHits::cpu.data       106909                       # number of demand (read+write) MSHR hits (Count)
system.cpu.dcache.demandMshrHits::total        106909                       # number of demand (read+write) MSHR hits (Count)
system.cpu.dcache.overallMshrHits::cpu.data       106909                       # number of overall MSHR hits (Count)
system.cpu.dcache.overallMshrHits::total       106909                       # number of overall MSHR hits (Count)
system.cpu.dcache.demandMshrMisses::cpu.data        31409                       # number of demand (read+write) MSHR misses (Count)
system.cpu.dcache.demandMshrMisses::total        31409                       # number of demand (read+write) MSHR misses (Count)
system.cpu.dcache.overallMshrMisses::cpu.data        31414                       # number of overall MSHR misses (Count)
system.cpu.dcache.overallMshrMisses::total        31414                       # number of overall MSHR misses (Count)
system.cpu.dcache.demandMshrMissLatency::cpu.data   2459941922                       # number of demand (read+write) MSHR miss ticks (Tick)
system.cpu.dcache.demandMshrMissLatency::total   2459941922                       # number of demand (read+write) MSHR miss ticks (Tick)
system.cpu.dcache.overallMshrMissLatency::cpu.data   2460292422                       # number of overall MSHR miss ticks (Tick)
system.cpu.dcache.overallMshrMissLatency::total   2460292422                       # number of overall MSHR miss ticks (Tick)
system.cpu.dcache.demandMshrMissRate::cpu.data     0.001406                       # mshr miss ratio for demand accesses (Ratio)
system.cpu.dcache.demandMshrMissRate::total     0.001406                       # mshr miss ratio for demand accesses (Ratio)
system.cpu.dcache.overallMshrMissRate::cpu.data     0.001403                       # mshr miss ratio for overall accesses (Ratio)
system.cpu.dcache.overallMshrMissRate::total     0.001403                       # mshr miss ratio for overall accesses (Ratio)
system.cpu.dcache.demandAvgMshrMissLatency::cpu.data 78319.651119                       # average overall mshr miss latency ((Cycle/Count))
system.cpu.dcache.demandAvgMshrMissLatency::total 78319.651119                       # average overall mshr miss latency ((Cycle/Count))
system.cpu.dcache.overallAvgMshrMissLatency::cpu.data 78318.342841                       # average overall mshr miss latency ((Cycle/Count))
system.cpu.dcache.overallAvgMshrMissLatency::total 78318.342841                       # average overall mshr miss latency ((Cycle/Count))
system.cpu.dcache.replacements                  30393                       # number of replacements (Count)
system.cpu.dcache.LoadLockedReq.hits::cpu.data           43                       # number of LoadLockedReq hits (Count)
system.cpu.dcache.LoadLockedReq.hits::total           43                       # number of LoadLockedReq hits (Count)
system.cpu.dcache.LoadLockedReq.misses::cpu.data            6                       # number of LoadLockedReq misses (Count)
system.cpu.dcache.LoadLockedReq.misses::total            6                       # number of LoadLockedReq misses (Count)
system.cpu.dcache.LoadLockedReq.missLatency::cpu.data       470500                       # number of LoadLockedReq miss ticks (Tick)
system.cpu.dcache.LoadLockedReq.missLatency::total       470500                       # number of LoadLockedReq miss ticks (Tick)
system.cpu.dcache.LoadLockedReq.accesses::cpu.data           49                       # number of LoadLockedReq accesses(hits+misses) (Count)
system.cpu.dcache.LoadLockedReq.accesses::total           49                       # number of LoadLockedReq accesses(hits+misses) (Count)
system.cpu.dcache.LoadLockedReq.missRate::cpu.data     0.122449                       # miss rate for LoadLockedReq accesses (Ratio)
system.cpu.dcache.LoadLockedReq.missRate::total     0.122449                       # miss rate for LoadLockedReq accesses (Ratio)
system.cpu.dcache.LoadLockedReq.avgMissLatency::cpu.data 78416.666667                       # average LoadLockedReq miss latency ((Tick/Count))
system.cpu.dcache.LoadLockedReq.avgMissLatency::total 78416.666667                       # average LoadLockedReq miss latency ((Tick/Count))
system.cpu.dcache.LoadLockedReq.mshrHits::cpu.data            3                       # number of LoadLockedReq MSHR hits (Count)
system.cpu.dcache.LoadLockedReq.mshrHits::total            3                       # number of LoadLockedReq MSHR hits (Count)
system.cpu.dcache.LoadLockedReq.mshrMisses::cpu.data            3                       # number of LoadLockedReq MSHR misses (Count)
system.cpu.dcache.LoadLockedReq.mshrMisses::total            3                       # number of LoadLockedReq MSHR misses (Count)
system.cpu.dcache.LoadLockedReq.mshrMissLatency::cpu.data       269500                       # number of LoadLockedReq MSHR miss ticks (Tick)
system.cpu.dcache.LoadLockedReq.mshrMissLatency::total       269500                       # number of LoadLockedReq MSHR miss ticks (Tick)
system.cpu.dcache.LoadLockedReq.mshrMissRate::cpu.data     0.061224                       # mshr miss rate for LoadLockedReq accesses (Ratio)
system.cpu.dcache.LoadLockedReq.mshrMissRate::total     0.061224                       # mshr miss rate for LoadLockedReq accesses (Ratio)
system.cpu.dcache.LoadLockedReq.avgMshrMissLatency::cpu.data 89833.333333                       # average LoadLockedReq mshr miss latency ((Tick/Count))
system.cpu.dcache.LoadLockedReq.avgMshrMissLatency::total 89833.333333                       # average LoadLockedReq mshr miss latency ((Tick/Count))
system.cpu.dcache.ReadReq.hits::cpu.data     12207518                       # number of ReadReq hits (Count)
system.cpu.dcache.ReadReq.hits::total        12207518                       # number of ReadReq hits (Count)
system.cpu.dcache.ReadReq.misses::cpu.data        68032                       # number of ReadReq misses (Count)
system.cpu.dcache.ReadReq.misses::total         68032                       # number of ReadReq misses (Count)
system.cpu.dcache.ReadReq.missLatency::cpu.data   4857763500                       # number of ReadReq miss ticks (Tick)
system.cpu.dcache.ReadReq.missLatency::total   4857763500                       # number of ReadReq miss ticks (Tick)
system.cpu.dcache.ReadReq.accesses::cpu.data     12275550                       # number of ReadReq accesses(hits+misses) (Count)
system.cpu.dcache.ReadReq.accesses::total     12275550                       # number of ReadReq accesses(hits+misses) (Count)
system.cpu.dcache.ReadReq.missRate::cpu.data     0.005542                       # miss rate for ReadReq accesses (Ratio)
system.cpu.dcache.ReadReq.missRate::total     0.005542                       # miss rate for ReadReq accesses (Ratio)
system.cpu.dcache.ReadReq.avgMissLatency::cpu.data 71404.096602                       # average ReadReq miss latency ((Tick/Count))
system.cpu.dcache.ReadReq.avgMissLatency::total 71404.096602                       # average ReadReq miss latency ((Tick/Count))
system.cpu.dcache.ReadReq.mshrHits::cpu.data        51839                       # number of ReadReq MSHR hits (Count)
system.cpu.dcache.ReadReq.mshrHits::total        51839                       # number of ReadReq MSHR hits (Count)
system.cpu.dcache.ReadReq.mshrMisses::cpu.data        16193                       # number of ReadReq MSHR misses (Count)
system.cpu.dcache.ReadReq.mshrMisses::total        16193                       # number of ReadReq MSHR misses (Count)
system.cpu.dcache.ReadReq.mshrMissLatency::cpu.data   1330956500                       # number of ReadReq MSHR miss ticks (Tick)
system.cpu.dcache.ReadReq.mshrMissLatency::total   1330956500                       # number of ReadReq MSHR miss ticks (Tick)
system.cpu.dcache.ReadReq.mshrMissRate::cpu.data     0.001319                       # mshr miss rate for ReadReq accesses (Ratio)
system.cpu.dcache.ReadReq.mshrMissRate::total     0.001319                       # mshr miss rate for ReadReq accesses (Ratio)
system.cpu.dcache.ReadReq.avgMshrMissLatency::cpu.data 82193.324276                       # average ReadReq mshr miss latency ((Tick/Count))
system.cpu.dcache.ReadReq.avgMshrMissLatency::total 82193.324276                       # average ReadReq mshr miss latency ((Tick/Count))
system.cpu.dcache.SoftPFReq.hits::cpu.data        38750                       # number of SoftPFReq hits (Count)
system.cpu.dcache.SoftPFReq.hits::total         38750                       # number of SoftPFReq hits (Count)
system.cpu.dcache.SoftPFReq.misses::cpu.data            5                       # number of SoftPFReq misses (Count)
system.cpu.dcache.SoftPFReq.misses::total            5                       # number of SoftPFReq misses (Count)
system.cpu.dcache.SoftPFReq.accesses::cpu.data        38755                       # number of SoftPFReq accesses(hits+misses) (Count)
system.cpu.dcache.SoftPFReq.accesses::total        38755                       # number of SoftPFReq accesses(hits+misses) (Count)
system.cpu.dcache.SoftPFReq.missRate::cpu.data     0.000129                       # miss rate for SoftPFReq accesses (Ratio)
system.cpu.dcache.SoftPFReq.missRate::total     0.000129                       # miss rate for SoftPFReq accesses (Ratio)
system.cpu.dcache.SoftPFReq.mshrMisses::cpu.data            5                       # number of SoftPFReq MSHR misses (Count)
system.cpu.dcache.SoftPFReq.mshrMisses::total            5                       # number of SoftPFReq MSHR misses (Count)
system.cpu.dcache.SoftPFReq.mshrMissLatency::cpu.data       350500                       # number of SoftPFReq MSHR miss ticks (Tick)
system.cpu.dcache.SoftPFReq.mshrMissLatency::total       350500                       # number of SoftPFReq MSHR miss ticks (Tick)
system.cpu.dcache.SoftPFReq.mshrMissRate::cpu.data     0.000129                       # mshr miss rate for SoftPFReq accesses (Ratio)
system.cpu.dcache.SoftPFReq.mshrMissRate::total     0.000129                       # mshr miss rate for SoftPFReq accesses (Ratio)
system.cpu.dcache.SoftPFReq.avgMshrMissLatency::cpu.data        70100                       # average SoftPFReq mshr miss latency ((Tick/Count))
system.cpu.dcache.SoftPFReq.avgMshrMissLatency::total        70100                       # average SoftPFReq mshr miss latency ((Tick/Count))
system.cpu.dcache.StoreCondReq.hits::cpu.data           10                       # number of StoreCondReq hits (Count)
system.cpu.dcache.StoreCondReq.hits::total           10                       # number of StoreCondReq hits (Count)
system.cpu.dcache.StoreCondReq.accesses::cpu.data           10                       # number of StoreCondReq accesses(hits+misses) (Count)
system.cpu.dcache.StoreCondReq.accesses::total           10                       # number of StoreCondReq accesses(hits+misses) (Count)
system.cpu.dcache.SwapReq.hits::cpu.data        98358                       # number of SwapReq hits (Count)
system.cpu.dcache.SwapReq.hits::total           98358                       # number of SwapReq hits (Count)
system.cpu.dcache.SwapReq.accesses::cpu.data        98358                       # number of SwapReq accesses(hits+misses) (Count)
system.cpu.dcache.SwapReq.accesses::total        98358                       # number of SwapReq accesses(hits+misses) (Count)
system.cpu.dcache.WriteLineReq.misses::cpu.data         2054                       # number of WriteLineReq misses (Count)
system.cpu.dcache.WriteLineReq.misses::total         2054                       # number of WriteLineReq misses (Count)
system.cpu.dcache.WriteLineReq.missLatency::cpu.data     40595930                       # number of WriteLineReq miss ticks (Tick)
system.cpu.dcache.WriteLineReq.missLatency::total     40595930                       # number of WriteLineReq miss ticks (Tick)
system.cpu.dcache.WriteLineReq.accesses::cpu.data         2054                       # number of WriteLineReq accesses(hits+misses) (Count)
system.cpu.dcache.WriteLineReq.accesses::total         2054                       # number of WriteLineReq accesses(hits+misses) (Count)
system.cpu.dcache.WriteLineReq.missRate::cpu.data            1                       # miss rate for WriteLineReq accesses (Ratio)
system.cpu.dcache.WriteLineReq.missRate::total            1                       # miss rate for WriteLineReq accesses (Ratio)
system.cpu.dcache.WriteLineReq.avgMissLatency::cpu.data 19764.328140                       # average WriteLineReq miss latency ((Tick/Count))
system.cpu.dcache.WriteLineReq.avgMissLatency::total 19764.328140                       # average WriteLineReq miss latency ((Tick/Count))
system.cpu.dcache.WriteLineReq.mshrMisses::cpu.data         2054                       # number of WriteLineReq MSHR misses (Count)
system.cpu.dcache.WriteLineReq.mshrMisses::total         2054                       # number of WriteLineReq MSHR misses (Count)
system.cpu.dcache.WriteLineReq.mshrMissLatency::cpu.data     38541930                       # number of WriteLineReq MSHR miss ticks (Tick)
system.cpu.dcache.WriteLineReq.mshrMissLatency::total     38541930                       # number of WriteLineReq MSHR miss ticks (Tick)
system.cpu.dcache.WriteLineReq.mshrMissRate::cpu.data            1                       # mshr miss rate for WriteLineReq accesses (Ratio)
system.cpu.dcache.WriteLineReq.mshrMissRate::total            1                       # mshr miss rate for WriteLineReq accesses (Ratio)
system.cpu.dcache.WriteLineReq.avgMshrMissLatency::cpu.data 18764.328140                       # average WriteLineReq mshr miss latency ((Tick/Count))
system.cpu.dcache.WriteLineReq.avgMshrMissLatency::total 18764.328140                       # average WriteLineReq mshr miss latency ((Tick/Count))
system.cpu.dcache.WriteReq.hits::cpu.data     10000302                       # number of WriteReq hits (Count)
system.cpu.dcache.WriteReq.hits::total       10000302                       # number of WriteReq hits (Count)
system.cpu.dcache.WriteReq.misses::cpu.data        68232                       # number of WriteReq misses (Count)
system.cpu.dcache.WriteReq.misses::total        68232                       # number of WriteReq misses (Count)
system.cpu.dcache.WriteReq.missLatency::cpu.data   4957648514                       # number of WriteReq miss ticks (Tick)
system.cpu.dcache.WriteReq.missLatency::total   4957648514                       # number of WriteReq miss ticks (Tick)
system.cpu.dcache.WriteReq.accesses::cpu.data     10068534                       # number of WriteReq accesses(hits+misses) (Count)
system.cpu.dcache.WriteReq.accesses::total     10068534                       # number of WriteReq accesses(hits+misses) (Count)
system.cpu.dcache.WriteReq.missRate::cpu.data     0.006777                       # miss rate for WriteReq accesses (Ratio)
system.cpu.dcache.WriteReq.missRate::total     0.006777                       # miss rate for WriteReq accesses (Ratio)
system.cpu.dcache.WriteReq.avgMissLatency::cpu.data 72658.701401                       # average WriteReq miss latency ((Tick/Count))
system.cpu.dcache.WriteReq.avgMissLatency::total 72658.701401                       # average WriteReq miss latency ((Tick/Count))
system.cpu.dcache.WriteReq.mshrHits::cpu.data        55070                       # number of WriteReq MSHR hits (Count)
system.cpu.dcache.WriteReq.mshrHits::total        55070                       # number of WriteReq MSHR hits (Count)
system.cpu.dcache.WriteReq.mshrMisses::cpu.data        13162                       # number of WriteReq MSHR misses (Count)
system.cpu.dcache.WriteReq.mshrMisses::total        13162                       # number of WriteReq MSHR misses (Count)
system.cpu.dcache.WriteReq.mshrMissLatency::cpu.data   1090443492                       # number of WriteReq MSHR miss ticks (Tick)
system.cpu.dcache.WriteReq.mshrMissLatency::total   1090443492                       # number of WriteReq MSHR miss ticks (Tick)
system.cpu.dcache.WriteReq.mshrMissRate::cpu.data     0.001307                       # mshr miss rate for WriteReq accesses (Ratio)
system.cpu.dcache.WriteReq.mshrMissRate::total     0.001307                       # mshr miss rate for WriteReq accesses (Ratio)
system.cpu.dcache.WriteReq.avgMshrMissLatency::cpu.data 82847.856861                       # average WriteReq mshr miss latency ((Tick/Count))
system.cpu.dcache.WriteReq.avgMshrMissLatency::total 82847.856861                       # average WriteReq mshr miss latency ((Tick/Count))
system.cpu.dcache.power_state.pwrStateResidencyTicks::UNDEFINED  15710513500                       # Cumulative time (in ticks) in various power states (Tick)
system.cpu.dcache.tags.tagsInUse          1003.262772                       # Average ticks per tags in use ((Tick/Count))
system.cpu.dcache.tags.totalRefs             22376398                       # Total number of references to valid blocks. (Count)
system.cpu.dcache.tags.sampledRefs              31417                       # Sample count of references to valid blocks. (Count)
system.cpu.dcache.tags.avgRefs             712.238533                       # Average number of references to valid blocks. ((Count/Count))
system.cpu.dcache.tags.warmupTick              145000                       # The tick when the warmup percentage was hit. (Tick)
system.cpu.dcache.tags.occupancies::cpu.data  1003.262772                       # Average occupied blocks per tick, per requestor ((Count/Tick))
system.cpu.dcache.tags.avgOccs::cpu.data     0.979749                       # Average percentage of cache occupancy ((Ratio/Tick))
system.cpu.dcache.tags.avgOccs::total        0.979749                       # Average percentage of cache occupancy ((Ratio/Tick))
system.cpu.dcache.tags.occupanciesTaskId::1024         1024                       # Occupied blocks per task id (Count)
system.cpu.dcache.tags.ageTaskId_1024::0           73                       # Occupied blocks per task id, per block age (Count)
system.cpu.dcache.tags.ageTaskId_1024::1           25                       # Occupied blocks per task id, per block age (Count)
system.cpu.dcache.tags.ageTaskId_1024::2          262                       # Occupied blocks per task id, per block age (Count)
system.cpu.dcache.tags.ageTaskId_1024::3          664                       # Occupied blocks per task id, per block age (Count)
system.cpu.dcache.tags.ratioOccsTaskId::1024            1                       # Ratio of occupied blocks and all blocks, per task id (Ratio)
system.cpu.dcache.tags.tagAccesses           44998037                       # Number of tag accesses (Count)
system.cpu.dcache.tags.dataAccesses          44998037                       # Number of data accesses (Count)
system.cpu.dcache.tags.power_state.pwrStateResidencyTicks::UNDEFINED  15710513500                       # Cumulative time (in ticks) in various power states (Tick)
system.cpu.decode.idleCycles                  9750218                       # Number of cycles decode is idle (Cycle)
system.cpu.decode.blockedCycles               5918965                       # Number of cycles decode is blocked (Cycle)
system.cpu.decode.runCycles                  14575683                       # Number of cycles decode is running (Cycle)
system.cpu.decode.unblockCycles                738960                       # Number of cycles decode is unblocking (Cycle)
system.cpu.decode.squashCycles                 114921                       # Number of cycles decode is squashing (Cycle)
system.cpu.decode.branchResolved              6545344                       # Number of times decode resolved a branch (Count)
system.cpu.decode.branchMispred                  1958                       # Number of times decode detected a branch misprediction (Count)
system.cpu.decode.decodedInsts               79962823                       # Number of instructions handled by decode (Count)
system.cpu.decode.squashedInsts                 12153                       # Number of squashed instructions handled by decode (Count)
system.cpu.fetch.icacheStallCycles           11077893                       # Number of cycles fetch is stalled on an Icache miss (Cycle)
system.cpu.fetch.insts                       71859795                       # Number of instructions fetch has processed (Count)
system.cpu.fetch.branches                    13544133                       # Number of branches that fetch encountered (Count)
system.cpu.fetch.predictedBranches            7632353                       # Number of branches that fetch has predicted taken (Count)
system.cpu.fetch.cycles                      19903875                       # Number of cycles fetch has run and was not squashing or blocked (Cycle)
system.cpu.fetch.squashCycles                  233744                       # Number of cycles fetch has spent squashing (Cycle)
system.cpu.fetch.miscStallCycles                    7                       # Number of cycles fetch has spent waiting on interrupts, or bad addresses, or out of MSHRs (Cycle)
system.cpu.fetch.icacheWaitRetryStallCycles          100                       # Number of stall cycles due to full MSHR (Cycle)
system.cpu.fetch.cacheLines                  10690205                       # Number of cache lines fetched (Count)
system.cpu.fetch.icacheSquashes                 62799                       # Number of outstanding Icache misses that were squashed (Count)
system.cpu.fetch.nisnDist::samples           31098747                       # Number of instructions fetched each cycle (Total) (Count)
system.cpu.fetch.nisnDist::mean              2.612307                       # Number of instructions fetched each cycle (Total) (Count)
system.cpu.fetch.nisnDist::stdev             3.167978                       # Number of instructions fetched each cycle (Total) (Count)
system.cpu.fetch.nisnDist::underflows               0      0.00%      0.00% # Number of instructions fetched each cycle (Total) (Count)
system.cpu.fetch.nisnDist::0                 14794468     47.57%     47.57% # Number of instructions fetched each cycle (Total) (Count)
system.cpu.fetch.nisnDist::1                  2357615      7.58%     55.15% # Number of instructions fetched each cycle (Total) (Count)
system.cpu.fetch.nisnDist::2                  1935494      6.22%     61.38% # Number of instructions fetched each cycle (Total) (Count)
system.cpu.fetch.nisnDist::3                  1760824      5.66%     67.04% # Number of instructions fetched each cycle (Total) (Count)
system.cpu.fetch.nisnDist::4                  1502487      4.83%     71.87% # Number of instructions fetched each cycle (Total) (Count)
system.cpu.fetch.nisnDist::5                  1119284      3.60%     75.47% # Number of instructions fetched each cycle (Total) (Count)
system.cpu.fetch.nisnDist::6                   866401      2.79%     78.26% # Number of instructions fetched each cycle (Total) (Count)
system.cpu.fetch.nisnDist::7                  1173761      3.77%     82.03% # Number of instructions fetched each cycle (Total) (Count)
system.cpu.fetch.nisnDist::8                  5588413     17.97%    100.00% # Number of instructions fetched each cycle (Total) (Count)
system.cpu.fetch.nisnDist::overflows                0      0.00%    100.00% # Number of instructions fetched each cycle (Total) (Count)
system.cpu.fetch.nisnDist::min_value                0                       # Number of instructions fetched each cycle (Total) (Count)
system.cpu.fetch.nisnDist::max_value                8                       # Number of instructions fetched each cycle (Total) (Count)
system.cpu.fetch.nisnDist::total             31098747                       # Number of instructions fetched each cycle (Total) (Count)
system.cpu.fetch.branchRate                  0.431053                       # Number of branch fetches per cycle (Ratio)
system.cpu.fetch.rate                        2.286997                       # Number of inst fetches per cycle ((Count/Cycle))
system.cpu.icache.demandHits::cpu.inst       10675831                       # number of demand (read+write) hits (Count)
system.cpu.icache.demandHits::total          10675831                       # number of demand (read+write) hits (Count)
system.cpu.icache.overallHits::cpu.inst      10675831                       # number of overall hits (Count)
system.cpu.icache.overallHits::total         10675831                       # number of overall hits (Count)
system.cpu.icache.demandMisses::cpu.inst        14374                       # number of demand (read+write) misses (Count)
system.cpu.icache.demandMisses::total           14374                       # number of demand (read+write) misses (Count)
system.cpu.icache.overallMisses::cpu.inst        14374                       # number of overall misses (Count)
system.cpu.icache.overallMisses::total          14374                       # number of overall misses (Count)
system.cpu.icache.demandMissLatency::cpu.inst    410546997                       # number of demand (read+write) miss ticks (Tick)
system.cpu.icache.demandMissLatency::total    410546997                       # number of demand (read+write) miss ticks (Tick)
system.cpu.icache.overallMissLatency::cpu.inst    410546997                       # number of overall miss ticks (Tick)
system.cpu.icache.overallMissLatency::total    410546997                       # number of overall miss ticks (Tick)
system.cpu.icache.demandAccesses::cpu.inst     10690205                       # number of demand (read+write) accesses (Count)
system.cpu.icache.demandAccesses::total      10690205                       # number of demand (read+write) accesses (Count)
system.cpu.icache.overallAccesses::cpu.inst     10690205                       # number of overall (read+write) accesses (Count)
system.cpu.icache.overallAccesses::total     10690205                       # number of overall (read+write) accesses (Count)
system.cpu.icache.demandMissRate::cpu.inst     0.001345                       # miss rate for demand accesses (Ratio)
system.cpu.icache.demandMissRate::total      0.001345                       # miss rate for demand accesses (Ratio)
system.cpu.icache.overallMissRate::cpu.inst     0.001345                       # miss rate for overall accesses (Ratio)
system.cpu.icache.overallMissRate::total     0.001345                       # miss rate for overall accesses (Ratio)
system.cpu.icache.demandAvgMissLatency::cpu.inst 28561.778002                       # average overall miss latency ((Cycle/Count))
system.cpu.icache.demandAvgMissLatency::total 28561.778002                       # average overall miss latency ((Cycle/Count))
system.cpu.icache.overallAvgMissLatency::cpu.inst 28561.778002                       # average overall miss latency ((Cycle/Count))
system.cpu.icache.overallAvgMissLatency::total 28561.778002                       # average overall miss latency ((Cycle/Count))
system.cpu.icache.blockedCycles::no_mshrs         1189                       # number of cycles access was blocked (Cycle)
system.cpu.icache.blockedCycles::no_targets            0                       # number of cycles access was blocked (Cycle)
system.cpu.icache.blockedCauses::no_mshrs           20                       # number of times access was blocked (Count)
system.cpu.icache.blockedCauses::no_targets            0                       # number of times access was blocked (Count)
system.cpu.icache.avgBlocked::no_mshrs      59.450000                       # average number of cycles each access was blocked ((Cycle/Count))
system.cpu.icache.avgBlocked::no_targets          nan                       # average number of cycles each access was blocked ((Cycle/Count))
system.cpu.icache.writebacks::writebacks        13027                       # number of writebacks (Count)
system.cpu.icache.writebacks::total             13027                       # number of writebacks (Count)
system.cpu.icache.demandMshrHits::cpu.inst          846                       # number of demand (read+write) MSHR hits (Count)
system.cpu.icache.demandMshrHits::total           846                       # number of demand (read+write) MSHR hits (Count)
system.cpu.icache.overallMshrHits::cpu.inst          846                       # number of overall MSHR hits (Count)
system.cpu.icache.overallMshrHits::total          846                       # number of overall MSHR hits (Count)
system.cpu.icache.demandMshrMisses::cpu.inst        13528                       # number of demand (read+write) MSHR misses (Count)
system.cpu.icache.demandMshrMisses::total        13528                       # number of demand (read+write) MSHR misses (Count)
system.cpu.icache.overallMshrMisses::cpu.inst        13528                       # number of overall MSHR misses (Count)
system.cpu.icache.overallMshrMisses::total        13528                       # number of overall MSHR misses (Count)
system.cpu.icache.demandMshrMissLatency::cpu.inst    370986998                       # number of demand (read+write) MSHR miss ticks (Tick)
system.cpu.icache.demandMshrMissLatency::total    370986998                       # number of demand (read+write) MSHR miss ticks (Tick)
system.cpu.icache.overallMshrMissLatency::cpu.inst    370986998                       # number of overall MSHR miss ticks (Tick)
system.cpu.icache.overallMshrMissLatency::total    370986998                       # number of overall MSHR miss ticks (Tick)
system.cpu.icache.demandMshrMissRate::cpu.inst     0.001265                       # mshr miss ratio for demand accesses (Ratio)
system.cpu.icache.demandMshrMissRate::total     0.001265                       # mshr miss ratio for demand accesses (Ratio)
system.cpu.icache.overallMshrMissRate::cpu.inst     0.001265                       # mshr miss ratio for overall accesses (Ratio)
system.cpu.icache.overallMshrMissRate::total     0.001265                       # mshr miss ratio for overall accesses (Ratio)
system.cpu.icache.demandAvgMshrMissLatency::cpu.inst 27423.639710                       # average overall mshr miss latency ((Cycle/Count))
system.cpu.icache.demandAvgMshrMissLatency::total 27423.639710                       # average overall mshr miss latency ((Cycle/Count))
system.cpu.icache.overallAvgMshrMissLatency::cpu.inst 27423.639710                       # average overall mshr miss latency ((Cycle/Count))
system.cpu.icache.overallAvgMshrMissLatency::total 27423.639710                       # average overall mshr miss latency ((Cycle/Count))
system.cpu.icache.replacements                  13027                       # number of replacements (Count)
system.cpu.icache.ReadReq.hits::cpu.inst     10675831                       # number of ReadReq hits (Count)
system.cpu.icache.ReadReq.hits::total        10675831                       # number of ReadReq hits (Count)
system.cpu.icache.ReadReq.misses::cpu.inst        14374                       # number of ReadReq misses (Count)
system.cpu.icache.ReadReq.misses::total         14374                       # number of ReadReq misses (Count)
system.cpu.icache.ReadReq.missLatency::cpu.inst    410546997                       # number of ReadReq miss ticks (Tick)
system.cpu.icache.ReadReq.missLatency::total    410546997                       # number of ReadReq miss ticks (Tick)
system.cpu.icache.ReadReq.accesses::cpu.inst     10690205                       # number of ReadReq accesses(hits+misses) (Count)
system.cpu.icache.ReadReq.accesses::total     10690205                       # number of ReadReq accesses(hits+misses) (Count)
system.cpu.icache.ReadReq.missRate::cpu.inst     0.001345                       # miss rate for ReadReq accesses (Ratio)
system.cpu.icache.ReadReq.missRate::total     0.001345                       # miss rate for ReadReq accesses (Ratio)
system.cpu.icache.ReadReq.avgMissLatency::cpu.inst 28561.778002                       # average ReadReq miss latency ((Tick/Count))
system.cpu.icache.ReadReq.avgMissLatency::total 28561.778002                       # average ReadReq miss latency ((Tick/Count))
system.cpu.icache.ReadReq.mshrHits::cpu.inst          846                       # number of ReadReq MSHR hits (Count)
system.cpu.icache.ReadReq.mshrHits::total          846                       # number of ReadReq MSHR hits (Count)
system.cpu.icache.ReadReq.mshrMisses::cpu.inst        13528                       # number of ReadReq MSHR misses (Count)
system.cpu.icache.ReadReq.mshrMisses::total        13528                       # number of ReadReq MSHR misses (Count)
system.cpu.icache.ReadReq.mshrMissLatency::cpu.inst    370986998                       # number of ReadReq MSHR miss ticks (Tick)
system.cpu.icache.ReadReq.mshrMissLatency::total    370986998                       # number of ReadReq MSHR miss ticks (Tick)
system.cpu.icache.ReadReq.mshrMissRate::cpu.inst     0.001265                       # mshr miss rate for ReadReq accesses (Ratio)
system.cpu.icache.ReadReq.mshrMissRate::total     0.001265                       # mshr miss rate for ReadReq accesses (Ratio)
system.cpu.icache.ReadReq.avgMshrMissLatency::cpu.inst 27423.639710                       # average ReadReq mshr miss latency ((Tick/Count))
system.cpu.icache.ReadReq.avgMshrMissLatency::total 27423.639710                       # average ReadReq mshr miss latency ((Tick/Count))
system.cpu.icache.power_state.pwrStateResidencyTicks::UNDEFINED  15710513500                       # Cumulative time (in ticks) in various power states (Tick)
system.cpu.icache.tags.tagsInUse           493.127900                       # Average ticks per tags in use ((Tick/Count))
system.cpu.icache.tags.totalRefs             10689358                       # Total number of references to valid blocks. (Count)
system.cpu.icache.tags.sampledRefs              13527                       # Sample count of references to valid blocks. (Count)
system.cpu.icache.tags.avgRefs             790.223849                       # Average number of references to valid blocks. ((Count/Count))
system.cpu.icache.tags.warmupTick               77000                       # The tick when the warmup percentage was hit. (Tick)
system.cpu.icache.tags.occupancies::cpu.inst   493.127900                       # Average occupied blocks per tick, per requestor ((Count/Tick))
system.cpu.icache.tags.avgOccs::cpu.inst     0.963140                       # Average percentage of cache occupancy ((Ratio/Tick))
system.cpu.icache.tags.avgOccs::total        0.963140                       # Average percentage of cache occupancy ((Ratio/Tick))
system.cpu.icache.tags.occupanciesTaskId::1024          500                       # Occupied blocks per task id (Count)
system.cpu.icache.tags.ageTaskId_1024::0           96                       # Occupied blocks per task id, per block age (Count)
system.cpu.icache.tags.ageTaskId_1024::2            1                       # Occupied blocks per task id, per block age (Count)
system.cpu.icache.tags.ageTaskId_1024::3          193                       # Occupied blocks per task id, per block age (Count)
system.cpu.icache.tags.ageTaskId_1024::4          210                       # Occupied blocks per task id, per block age (Count)
system.cpu.icache.tags.ratioOccsTaskId::1024     0.976562                       # Ratio of occupied blocks and all blocks, per task id (Ratio)
system.cpu.icache.tags.tagAccesses           21393937                       # Number of tag accesses (Count)
system.cpu.icache.tags.dataAccesses          21393937                       # Number of data accesses (Count)
system.cpu.icache.tags.power_state.pwrStateResidencyTicks::UNDEFINED  15710513500                       # Cumulative time (in ticks) in various power states (Tick)
system.cpu.iew.idleCycles                           0                       # Number of cycles IEW is idle (Cycle)
system.cpu.iew.squashCycles                    114921                       # Number of cycles IEW is squashing (Cycle)
system.cpu.iew.blockCycles                     993630                       # Number of cycles IEW is blocking (Cycle)
system.cpu.iew.unblockCycles                   697826                       # Number of cycles IEW is unblocking (Cycle)
system.cpu.iew.dispatchedInsts               79071241                       # Number of instructions dispatched to IQ (Count)
system.cpu.iew.dispSquashedInsts                77058                       # Number of squashed instructions skipped by dispatch (Count)
system.cpu.iew.dispLoadInsts                 14039490                       # Number of dispatched load instructions (Count)
system.cpu.iew.dispStoreInsts                11808931                       # Number of dispatched store instructions (Count)
system.cpu.iew.dispNonSpecInsts                196981                       # Number of dispatched non-speculative instructions (Count)
system.cpu.iew.iqFullEvents                     12596                       # Number of times the IQ has become full, causing a stall (Count)
system.cpu.iew.lsqFullEvents                   678685                       # Number of times the LSQ has become full, causing a stall (Count)
system.cpu.iew.memOrderViolationEvents          51024                       # Number of memory order violations (Count)
system.cpu.iew.predictedTakenIncorrect          28289                       # Number of branches that were predicted taken incorrectly (Count)
[...]
system.mem_ctrls.dram.bwRead::cpu.inst       55105010                       # Total read bandwidth from this memory ((Byte/Second))
system.mem_ctrls.dram.bwRead::cpu.data      119526583                       # Total read bandwidth from this memory ((Byte/Second))
system.mem_ctrls.dram.bwRead::total         174631593                       # Total read bandwidth from this memory ((Byte/Second))
system.mem_ctrls.dram.bwInstRead::cpu.inst     55105010                       # Instruction read bandwidth from this memory ((Byte/Second))
system.mem_ctrls.dram.bwInstRead::total      55105010                       # Instruction read bandwidth from this memory ((Byte/Second))
system.mem_ctrls.dram.bwWrite::writebacks     65285199                       # Write bandwidth from this memory ((Byte/Second))
system.mem_ctrls.dram.bwWrite::total         65285199                       # Write bandwidth from this memory ((Byte/Second))
system.mem_ctrls.dram.bwTotal::writebacks     65285199                       # Total bandwidth to/from this memory ((Byte/Second))
system.mem_ctrls.dram.bwTotal::cpu.inst      55105010                       # Total bandwidth to/from this memory ((Byte/Second))
system.mem_ctrls.dram.bwTotal::cpu.data     119526583                       # Total bandwidth to/from this memory ((Byte/Second))
system.mem_ctrls.dram.bwTotal::total        239916792                       # Total bandwidth to/from this memory ((Byte/Second))
system.mem_ctrls.dram.readBursts                30854                       # Number of DRAM read bursts (Count)
system.mem_ctrls.dram.writeBursts               17559                       # Number of DRAM write bursts (Count)
system.mem_ctrls.dram.perBankRdBursts::0         1846                       # Per bank write bursts (Count)
system.mem_ctrls.dram.perBankRdBursts::1         1908                       # Per bank write bursts (Count)
system.mem_ctrls.dram.perBankRdBursts::2         1978                       # Per bank write bursts (Count)
system.mem_ctrls.dram.perBankRdBursts::3         1889                       # Per bank write bursts (Count)
system.mem_ctrls.dram.perBankRdBursts::4         1879                       # Per bank write bursts (Count)
system.mem_ctrls.dram.perBankRdBursts::5         2116                       # Per bank write bursts (Count)
system.mem_ctrls.dram.perBankRdBursts::6         2348                       # Per bank write bursts (Count)
system.mem_ctrls.dram.perBankRdBursts::7         2088                       # Per bank write bursts (Count)
system.mem_ctrls.dram.perBankRdBursts::8         1837                       # Per bank write bursts (Count)
system.mem_ctrls.dram.perBankRdBursts::9         1853                       # Per bank write bursts (Count)
system.mem_ctrls.dram.perBankRdBursts::10         1966                       # Per bank write bursts (Count)
system.mem_ctrls.dram.perBankRdBursts::11         1964                       # Per bank write bursts (Count)
system.mem_ctrls.dram.perBankRdBursts::12         1821                       # Per bank write bursts (Count)
system.mem_ctrls.dram.perBankRdBursts::13         1794                       # Per bank write bursts (Count)
system.mem_ctrls.dram.perBankRdBursts::14         1778                       # Per bank write bursts (Count)
system.mem_ctrls.dram.perBankRdBursts::15         1789                       # Per bank write bursts (Count)
system.mem_ctrls.dram.perBankWrBursts::0         1031                       # Per bank write bursts (Count)
system.mem_ctrls.dram.perBankWrBursts::1         1067                       # Per bank write bursts (Count)
system.mem_ctrls.dram.perBankWrBursts::2         1119                       # Per bank write bursts (Count)
system.mem_ctrls.dram.perBankWrBursts::3         1111                       # Per bank write bursts (Count)
system.mem_ctrls.dram.perBankWrBursts::4         1113                       # Per bank write bursts (Count)
system.mem_ctrls.dram.perBankWrBursts::5         1183                       # Per bank write bursts (Count)
system.mem_ctrls.dram.perBankWrBursts::6         1262                       # Per bank write bursts (Count)
system.mem_ctrls.dram.perBankWrBursts::7         1069                       # Per bank write bursts (Count)
system.mem_ctrls.dram.perBankWrBursts::8         1033                       # Per bank write bursts (Count)
system.mem_ctrls.dram.perBankWrBursts::9         1140                       # Per bank write bursts (Count)
system.mem_ctrls.dram.perBankWrBursts::10          974                       # Per bank write bursts (Count)
system.mem_ctrls.dram.perBankWrBursts::11         1219                       # Per bank write bursts (Count)
system.mem_ctrls.dram.perBankWrBursts::12         1019                       # Per bank write bursts (Count)
system.mem_ctrls.dram.perBankWrBursts::13         1236                       # Per bank write bursts (Count)
system.mem_ctrls.dram.perBankWrBursts::14          976                       # Per bank write bursts (Count)
system.mem_ctrls.dram.perBankWrBursts::15         1007                       # Per bank write bursts (Count)
system.mem_ctrls.dram.totQLat               956017750                       # Total ticks spent queuing (Tick)
system.mem_ctrls.dram.totBusLat             154270000                       # Total ticks spent in databus transfers (Tick)
system.mem_ctrls.dram.totMemAccLat         1534530250                       # Total ticks spent from burst creation until serviced by the DRAM (Tick)
system.mem_ctrls.dram.avgQLat                30985.21                       # Average queueing delay per DRAM burst ((Tick/Count))
system.mem_ctrls.dram.avgBusLat               5000.00                       # Average bus latency per DRAM burst ((Tick/Count))
system.mem_ctrls.dram.avgMemAccLat           49735.21                       # Average memory access latency per DRAM burst ((Tick/Count))
system.mem_ctrls.dram.readRowHits               21259                       # Number of row buffer hits during reads (Count)
system.mem_ctrls.dram.writeRowHits              15202                       # Number of row buffer hits during writes (Count)
system.mem_ctrls.dram.readRowHitRate            68.90                       # Row buffer hit rate for reads (Ratio)
system.mem_ctrls.dram.writeRowHitRate           86.58                       # Row buffer hit rate for writes (Ratio)
system.mem_ctrls.dram.bytesPerActivate::samples        11938                       # Bytes accessed per row activation (Byte)
system.mem_ctrls.dram.bytesPerActivate::mean   259.334562                       # Bytes accessed per row activation (Byte)
system.mem_ctrls.dram.bytesPerActivate::gmean   174.161180                       # Bytes accessed per row activation (Byte)
system.mem_ctrls.dram.bytesPerActivate::stdev   268.725256                       # Bytes accessed per row activation (Byte)
system.mem_ctrls.dram.bytesPerActivate::0-127         3551     29.75%     29.75% # Bytes accessed per row activation (Byte)
system.mem_ctrls.dram.bytesPerActivate::128-255         3797     31.81%     61.55% # Bytes accessed per row activation (Byte)
system.mem_ctrls.dram.bytesPerActivate::256-383         2905     24.33%     85.89% # Bytes accessed per row activation (Byte)
system.mem_ctrls.dram.bytesPerActivate::384-511          281      2.35%     88.24% # Bytes accessed per row activation (Byte)
system.mem_ctrls.dram.bytesPerActivate::512-639          142      1.19%     89.43% # Bytes accessed per row activation (Byte)
system.mem_ctrls.dram.bytesPerActivate::640-767          124      1.04%     90.47% # Bytes accessed per row activation (Byte)
system.mem_ctrls.dram.bytesPerActivate::768-895           70      0.59%     91.05% # Bytes accessed per row activation (Byte)
system.mem_ctrls.dram.bytesPerActivate::896-1023           85      0.71%     91.77% # Bytes accessed per row activation (Byte)
system.mem_ctrls.dram.bytesPerActivate::1024-1151          983      8.23%    100.00% # Bytes accessed per row activation (Byte)
system.mem_ctrls.dram.bytesPerActivate::total        11938                       # Bytes accessed per row activation (Byte)
system.mem_ctrls.dram.bytesRead               1974656                       # Total bytes read (Byte)
system.mem_ctrls.dram.bytesWritten            1123776                       # Total bytes written (Byte)
system.mem_ctrls.dram.avgRdBW              125.690099                       # Average DRAM read bandwidth in MiBytes/s ((Byte/Second))
system.mem_ctrls.dram.avgWrBW               71.530189                       # Average DRAM write bandwidth in MiBytes/s ((Byte/Second))
system.mem_ctrls.dram.peakBW                 12800.00                       # Theoretical peak bandwidth in MiByte/s ((Byte/Second))
system.mem_ctrls.dram.busUtil                    1.54                       # Data bus utilization in percentage (Ratio)
system.mem_ctrls.dram.busUtilRead                0.98                       # Data bus utilization in percentage for reads (Ratio)
system.mem_ctrls.dram.busUtilWrite               0.56                       # Data bus utilization in percentage for writes (Ratio)
system.mem_ctrls.dram.pageHitRate               75.31                       # Row buffer hit rate, read and write combined (Ratio)
system.mem_ctrls.dram.power_state.pwrStateResidencyTicks::UNDEFINED  15710513500                       # Cumulative time (in ticks) in various power states (Tick)
system.mem_ctrls.dram.rank0.actEnergy        43718220                       # Energy for activate commands per rank (pJ) (Joule)
system.mem_ctrls.dram.rank0.preEnergy        23214015                       # Energy for precharge commands per rank (pJ) (Joule)
system.mem_ctrls.dram.rank0.readEnergy      114604140                       # Energy for read commands per rank (pJ) (Joule)
system.mem_ctrls.dram.rank0.writeEnergy      46745100                       # Energy for write commands per rank (pJ) (Joule)
system.mem_ctrls.dram.rank0.refreshEnergy 1239728880.000000                       # Energy for refresh commands per rank (pJ) (Joule)
system.mem_ctrls.dram.rank0.actBackEnergy   3587699700                       # Energy for active background per rank (pJ) (Joule)
system.mem_ctrls.dram.rank0.preBackEnergy   3011616480                       # Energy for precharge background per rank (pJ) (Joule)
system.mem_ctrls.dram.rank0.actPowerDownEnergy            0                       # Energy for active power-down per rank (pJ) (Joule)
system.mem_ctrls.dram.rank0.prePowerDownEnergy            0                       # Energy for precharge power-down per rank (pJ) (Joule)
system.mem_ctrls.dram.rank0.selfRefreshEnergy            0                       # Energy for self refresh per rank (pJ) (Joule)
system.mem_ctrls.dram.rank0.totalEnergy    8067326535                       # Total energy per rank (pJ) (Joule)
system.mem_ctrls.dram.rank0.averagePower   513.498590                       # Core power per rank (mW) (Watt)
system.mem_ctrls.dram.rank0.totalIdleTime            0                       # Total Idle time Per DRAM Rank (Tick)
system.mem_ctrls.dram.rank0.pwrStateTime::IDLE   7780153000                       # Time in different power states (Tick)
system.mem_ctrls.dram.rank0.pwrStateTime::REF    524420000                       # Time in different power states (Tick)
system.mem_ctrls.dram.rank0.pwrStateTime::SREF            0                       # Time in different power states (Tick)
system.mem_ctrls.dram.rank0.pwrStateTime::PRE_PDN            0                       # Time in different power states (Tick)
system.mem_ctrls.dram.rank0.pwrStateTime::ACT   7405940500                       # Time in different power states (Tick)
system.mem_ctrls.dram.rank0.pwrStateTime::ACT_PDN            0                       # Time in different power states (Tick)
system.mem_ctrls.dram.rank1.actEnergy        41611920                       # Energy for activate commands per rank (pJ) (Joule)
system.mem_ctrls.dram.rank1.preEnergy        22090695                       # Energy for precharge commands per rank (pJ) (Joule)
system.mem_ctrls.dram.rank1.readEnergy      105686280                       # Energy for read commands per rank (pJ) (Joule)
system.mem_ctrls.dram.rank1.writeEnergy      44912880                       # Energy for write commands per rank (pJ) (Joule)
system.mem_ctrls.dram.rank1.refreshEnergy 1239728880.000000                       # Energy for refresh commands per rank (pJ) (Joule)
system.mem_ctrls.dram.rank1.actBackEnergy   3722360490                       # Energy for active background per rank (pJ) (Joule)
system.mem_ctrls.dram.rank1.preBackEnergy   2898217920                       # Energy for precharge background per rank (pJ) (Joule)
system.mem_ctrls.dram.rank1.actPowerDownEnergy            0                       # Energy for active power-down per rank (pJ) (Joule)
system.mem_ctrls.dram.rank1.prePowerDownEnergy            0                       # Energy for precharge power-down per rank (pJ) (Joule)
system.mem_ctrls.dram.rank1.selfRefreshEnergy            0                       # Energy for self refresh per rank (pJ) (Joule)
system.mem_ctrls.dram.rank1.totalEnergy    8074609065                       # Total energy per rank (pJ) (Joule)
system.mem_ctrls.dram.rank1.averagePower   513.962135                       # Core power per rank (mW) (Watt)
system.mem_ctrls.dram.rank1.totalIdleTime            0                       # Total Idle time Per DRAM Rank (Tick)
system.mem_ctrls.dram.rank1.pwrStateTime::IDLE   7483882250                       # Time in different power states (Tick)
system.mem_ctrls.dram.rank1.pwrStateTime::REF    524420000                       # Time in different power states (Tick)
system.mem_ctrls.dram.rank1.pwrStateTime::SREF            0                       # Time in different power states (Tick)
system.mem_ctrls.dram.rank1.pwrStateTime::PRE_PDN            0                       # Time in different power states (Tick)
system.mem_ctrls.dram.rank1.pwrStateTime::ACT   7702211250                       # Time in different power states (Tick)
system.mem_ctrls.dram.rank1.pwrStateTime::ACT_PDN            0                       # Time in different power states (Tick)
system.mem_ctrls.power_state.pwrStateResidencyTicks::UNDEFINED  15710513500                       # Cumulative time (in ticks) in various power states (Tick)
system.membus.transDist::ReadResp               29727                       # Transaction distribution (Count)
system.membus.transDist::WritebackDirty         16026                       # Transaction distribution (Count)
system.membus.transDist::WritebackClean         13027                       # Transaction distribution (Count)
system.membus.transDist::CleanEvict             14367                       # Transaction distribution (Count)
system.membus.transDist::ReadExReq              13141                       # Transaction distribution (Count)
system.membus.transDist::ReadExResp             13141                       # Transaction distribution (Count)
system.membus.transDist::ReadCleanReq           13528                       # Transaction distribution (Count)
system.membus.transDist::ReadSharedReq          16200                       # Transaction distribution (Count)
system.membus.transDist::InvalidateReq           2076                       # Transaction distribution (Count)
system.membus.pktCount_system.cpu.icache.mem_side_port::system.mem_ctrls.port        40082                       # Packet count per connected requestor and responder (Count)
system.membus.pktCount_system.cpu.dcache.mem_side_port::system.mem_ctrls.port        91151                       # Packet count per connected requestor and responder (Count)
system.membus.pktCount::total                  131233                       # Packet count per connected requestor and responder (Count)
system.membus.pktSize_system.cpu.icache.mem_side_port::system.mem_ctrls.port      1699456                       # Cumulative packet size per connected requestor and responder (Byte)
system.membus.pktSize_system.cpu.dcache.mem_side_port::system.mem_ctrls.port      2903488                       # Cumulative packet size per connected requestor and responder (Byte)
system.membus.pktSize::total                  4602944                       # Cumulative packet size per connected requestor and responder (Byte)
system.membus.snoops                                0                       # Total snoops (Count)
system.membus.snoopTraffic                          0                       # Total snoop traffic (Byte)
system.membus.snoopFanout::samples              44945                       # Request fanout histogram (Count)
system.membus.snoopFanout::mean              0.000044                       # Request fanout histogram (Count)
system.membus.snoopFanout::stdev             0.006671                       # Request fanout histogram (Count)
system.membus.snoopFanout::underflows               0      0.00%      0.00% # Request fanout histogram (Count)
system.membus.snoopFanout::0                    44943    100.00%    100.00% # Request fanout histogram (Count)
system.membus.snoopFanout::1                        2      0.00%    100.00% # Request fanout histogram (Count)
system.membus.snoopFanout::2                        0      0.00%    100.00% # Request fanout histogram (Count)
system.membus.snoopFanout::overflows                0      0.00%    100.00% # Request fanout histogram (Count)
system.membus.snoopFanout::min_value                0                       # Request fanout histogram (Count)
system.membus.snoopFanout::max_value                1                       # Request fanout histogram (Count)
system.membus.snoopFanout::total                44945                       # Request fanout histogram (Count)
system.membus.power_state.pwrStateResidencyTicks::UNDEFINED  15710513500                       # Cumulative time (in ticks) in various power states (Tick)
system.membus.reqLayer0.occupancy           210657250                       # Layer occupancy (ticks) (Tick)
system.membus.reqLayer0.utilization               0.0                       # Layer utilization (Ratio)
system.membus.respLayer1.occupancy           68220500                       # Layer occupancy (ticks) (Tick)
system.membus.respLayer1.utilization              0.0                       # Layer utilization (Ratio)
system.membus.respLayer2.occupancy          153786250                       # Layer occupancy (ticks) (Tick)
system.membus.respLayer2.utilization              0.0                       # Layer utilization (Ratio)
system.membus.snoop_filter.totRequests          88370                       # Total number of requests made to the snoop filter. (Count)
system.membus.snoop_filter.hitSingleRequests        43426                       # Number of requests hitting in the snoop filter with a single holder of the requested data. (Count)
system.membus.snoop_filter.hitMultiRequests            1                       # Number of requests hitting in the snoop filter with multiple (>1) holders of the requested data. (Count)
system.membus.snoop_filter.totSnoops                0                       # Total number of snoops made to the snoop filter. (Count)
system.membus.snoop_filter.hitSingleSnoops            0                       # Number of snoops hitting in the snoop filter with a single holder of the requested data. (Count)
system.membus.snoop_filter.hitMultiSnoops            0                       # Number of snoops hitting in the snoop filter with multiple (>1) holders of the requested data. (Count)
system.voltage_domain.voltage                       1                       # Voltage in Volts (Volt)
system.workload.inst.arm                            0                       # number of arm instructions executed (Count)
system.workload.inst.quiesce                        0                       # number of quiesce instructions executed (Count)

---------- End Simulation Statistics   ----------
