
---------- Begin Simulation Statistics ----------
simSeconds                                   0.015625                       # Number of seconds simulated (Second)
simTicks                                  15624633500                       # Number of ticks simulated (Tick)
finalTick                                 15624633500                       # Number of ticks from beginning of simulation (restored from checkpoints and never reset) (Tick)
simFreq                                  1000000000000                       # The number of ticks per simulated second ((Tick/Second))
hostSeconds                                    101.78                       # Real time elapsed on the host (Second)
hostTickRate                                153513259                       # The number of ticks simulated per host second (ticks/s) ((Tick/Second))
hostMemory                                     681508                       # Number of bytes of host memory used (Byte)
simInsts                                     66863981                       # Number of instructions simulated (Count)
simOps                                       74319563                       # Number of ops (including micro ops) simulated (Count)
hostInstRate                                   656943                       # Simulator instruction rate (inst/s) ((Count/Second))
hostOpRate                                     730195                       # Simulator op (including micro ops) rate (op/s) ((Count/Second))
system.clk_domain.clock                          1000                       # Clock period in ticks (Tick)
system.cpu.numCycles                         31249268                       # Number of cpu cycles simulated (Cycle)
system.cpu.numWorkItemsStarted                      0                       # Number of work items this cpu started (Count)
system.cpu.numWorkItemsCompleted                    0                       # Number of work items this cpu completed (Count)
system.cpu.instsAdded                        78770363                       # Number of instructions added to the IQ (excludes non-spec) (Count)
system.cpu.nonSpecInstsAdded                   196982                       # Number of non-speculative instructions added to the IQ (Count)
system.cpu.instsIssued                       78688548                       # Number of instructions issued (Count)
system.cpu.squashedInstsIssued                 262268                       # Number of squashed instructions issued (Count)
system.cpu.squashedInstsExamined              4647781                       # Number of squashed instructions iterated over during squash; mainly for profiling (Count)
system.cpu.squashedOperandsExamined           3735753                       # Number of squashed operands that are examined and possibly removed from graph (Count)
system.cpu.squashedNonSpecRemoved                 172                       # Number of squashed non-spec instructions that were removed (Count)
system.cpu.numIssuedDist::samples            30922613                       # Number of insts issued each cycle (Count)
system.cpu.numIssuedDist::mean               2.544693                       # Number of insts issued each cycle (Count)
system.cpu.numIssuedDist::stdev              2.293509                       # Number of insts issued each cycle (Count)
system.cpu.numIssuedDist::underflows                0      0.00%      0.00% # Number of insts issued each cycle (Count)
system.cpu.numIssuedDist::0                   7990019     25.84%     25.84% # Number of insts issued each cycle (Count)
system.cpu.numIssuedDist::1                   4565224     14.76%     40.60% # Number of insts issued each cycle (Count)
system.cpu.numIssuedDist::2                   4424261     14.31%     54.91% # Number of insts issued each cycle (Count)
system.cpu.numIssuedDist::3                   4404477     14.24%     69.15% # Number of insts issued each cycle (Count)
system.cpu.numIssuedDist::4                   3178555     10.28%     79.43% # Number of insts issued each cycle (Count)
system.cpu.numIssuedDist::5                   1979120      6.40%     85.83% # Number of insts issued each cycle (Count)
system.cpu.numIssuedDist::6                   2109872      6.82%     92.66% # Number of insts issued each cycle (Count)
system.cpu.numIssuedDist::7                   1376361      4.45%     97.11% # Number of insts issued each cycle (Count)
system.cpu.numIssuedDist::8                    894724      2.89%    100.00% # Number of insts issued each cycle (Count)
system.cpu.numIssuedDist::overflows                 0      0.00%    100.00% # Number of insts issued each cycle (Count)
system.cpu.numIssuedDist::min_value                 0                       # Number of insts issued each cycle (Count)
system.cpu.numIssuedDist::max_value                 8                       # Number of insts issued each cycle (Count)
system.cpu.numIssuedDist::total              30922613                       # Number of insts issued each cycle (Count)
system.cpu.statFuBusy::No_OpClass                   0      0.00%      0.00% # attempts to use FU when none available (Count)
system.cpu.statFuBusy::IntAlu                  343989     13.64%     13.64% # attempts to use FU when none available (Count)
system.cpu.statFuBusy::IntMult                 137823      5.47%     19.11% # attempts to use FU when none available (Count)
system.cpu.statFuBusy::IntDiv                       0      0.00%     19.11% # attempts to use FU when none available (Count)
system.cpu.statFuBusy::FloatAdd                     0      0.00%     19.11% # attempts to use FU when none available (Count)
system.cpu.statFuBusy::FloatCmp                     0      0.00%     19.11% # attempts to use FU when none available (Count)
system.cpu.statFuBusy::FloatCvt                     0      0.00%     19.11% # attempts to use FU when none available (Count)
system.cpu.statFuBusy::FloatMult                    0      0.00%     19.11% # attempts to use FU when none available (Count)
system.cpu.statFuBusy::FloatMultAcc                 0      0.00%     19.11% # attempts to use FU when none available (Count)
system.cpu.statFuBusy::FloatDiv                     0      0.00%     19.11% # attempts to use FU when none available (Count)
system.cpu.statFuBusy::FloatMisc                    0      0.00%     19.11% # attempts to use FU when none available (Count)
system.cpu.statFuBusy::FloatSqrt                    0      0.00%     19.11% # attempts to use FU when none available (Count)
system.cpu.statFuBusy::SimdAdd                      0      0.00%     19.11% # attempts to use FU when none available (Count)
system.cpu.statFuBusy::SimdAddAcc                   0      0.00%     19.11% # attempts to use FU when none available (Count)
system.cpu.statFuBusy::SimdAlu                      1      0.00%     19.11% # attempts to use FU when none available (Count)
system.cpu.statFuBusy::SimdCmp                      4      0.00%     19.11% # attempts to use FU when none available (Count)
system.cpu.statFuBusy::SimdCvt                      0      0.00%     19.11% # attempts to use FU when none available (Count)
system.cpu.statFuBusy::SimdMisc                     0      0.00%     19.11% # attempts to use FU when none available (Count)
system.cpu.statFuBusy::SimdMult                     0      0.00%     19.11% # attempts to use FU when none available (Count)
system.cpu.statFuBusy::SimdMultAcc                  0      0.00%     19.11% # attempts to use FU when none available (Count)
system.cpu.statFuBusy::SimdShift                    0      0.00%     19.11% # attempts to use FU when none available (Count)
system.cpu.statFuBusy::SimdShiftAcc                 0      0.00%     19.11% # attempts to use FU when none available (Count)
system.cpu.statFuBusy::SimdDiv                      0      0.00%     19.11% # attempts to use FU when none available (Count)
system.cpu.statFuBusy::SimdSqrt                     0      0.00%     19.11% # attempts to use FU when none available (Count)
system.cpu.statFuBusy::SimdFloatAdd                 0      0.00%     19.11% # attempts to use FU when none available (Count)
system.cpu.statFuBusy::SimdFloatAlu                 0      0.00%     19.11% # attempts to use FU when none available (Count)
system.cpu.statFuBusy::SimdFloatCmp                 0      0.00%     19.11% # attempts to use FU when none available (Count)
system.cpu.statFuBusy::SimdFloatCvt                 0      0.00%     19.11% # attempts to use FU when none available (Count)
system.cpu.statFuBusy::SimdFloatDiv                 0      0.00%     19.11% # attempts to use FU when none available (Count)
system.cpu.statFuBusy::SimdFloatMisc                0      0.00%     19.11% # attempts to use FU when none available (Count)
system.cpu.statFuBusy::SimdFloatMult                0      0.00%     19.11% # attempts to use FU when none available (Count)
system.cpu.statFuBusy::SimdFloatMultAcc             0      0.00%     19.11% # attempts to use FU when none available (Count)
system.cpu.statFuBusy::SimdFloatSqrt                0      0.00%     19.11% # attempts to use FU when none available (Count)
system.cpu.statFuBusy::SimdReduceAdd                0      0.00%     19.11% # attempts to use FU when none available (Count)
system.cpu.statFuBusy::SimdReduceAlu                0      0.00%     19.11% # attempts to use FU when none available (Count)
system.cpu.statFuBusy::SimdReduceCmp                0      0.00%     19.11% # attempts to use FU when none available (Count)
system.cpu.statFuBusy::SimdFloatReduceAdd            0      0.00%     19.11% # attempts to use FU when none available (Count)
system.cpu.statFuBusy::SimdFloatReduceCmp            0      0.00%     19.11% # attempts to use FU when none available (Count)
system.cpu.statFuBusy::SimdAes                      0      0.00%     19.11% # attempts to use FU when none available (Count)
system.cpu.statFuBusy::SimdAesMix                   0      0.00%     19.11% # attempts to use FU when none available (Count)
system.cpu.statFuBusy::SimdSha1Hash                 0      0.00%     19.11% # attempts to use FU when none available (Count)
system.cpu.statFuBusy::SimdSha1Hash2                0      0.00%     19.11% # attempts to use FU when none available (Count)
system.cpu.statFuBusy::SimdSha256Hash               0      0.00%     19.11% # attempts to use FU when none available (Count)
system.cpu.statFuBusy::SimdSha256Hash2              0      0.00%     19.11% # attempts to use FU when none available (Count)
system.cpu.statFuBusy::SimdShaSigma2                0      0.00%     19.11% # attempts to use FU when none available (Count)
system.cpu.statFuBusy::SimdShaSigma3                0      0.00%     19.11% # attempts to use FU when none available (Count)
system.cpu.statFuBusy::SimdPredAlu                  0      0.00%     19.11% # attempts to use FU when none available (Count)
system.cpu.statFuBusy::MemRead                 955514     37.90%     57.01% # attempts to use FU when none available (Count)
system.cpu.statFuBusy::MemWrite               1084080     42.99%    100.00% # attempts to use FU when none available (Count)
system.cpu.statFuBusy::FloatMemRead                 0      0.00%    100.00% # attempts to use FU when none available (Count)
system.cpu.statFuBusy::FloatMemWrite                0      0.00%    100.00% # attempts to use FU when none available (Count)
system.cpu.statFuBusy::IprAccess                    0      0.00%    100.00% # attempts to use FU when none available (Count)
system.cpu.statFuBusy::InstPrefetch                 0      0.00%    100.00% # attempts to use FU when none available (Count)
system.cpu.statIssuedInstType_0::No_OpClass       131151      0.17%      0.17% # Number of instructions issued per FU type, per thread (Count)
system.cpu.statIssuedInstType_0::IntAlu      51352249     65.26%     65.43% # Number of instructions issued per FU type, per thread (Count)
system.cpu.statIssuedInstType_0::IntMult       602805      0.77%     66.19% # Number of instructions issued per FU type, per thread (Count)
system.cpu.statIssuedInstType_0::IntDiv         25940      0.03%     66.23% # Number of instructions issued per FU type, per thread (Count)
system.cpu.statIssuedInstType_0::FloatAdd         2165      0.00%     66.23% # Number of instructions issued per FU type, per thread (Count)
system.cpu.statIssuedInstType_0::FloatCmp        66473      0.08%     66.31% # Number of instructions issued per FU type, per thread (Count)
system.cpu.statIssuedInstType_0::FloatCvt            0      0.00%     66.31% # Number of instructions issued per FU type, per thread (Count)
system.cpu.statIssuedInstType_0::FloatMult         1629      0.00%     66.32% # Number of instructions issued per FU type, per thread (Count)
system.cpu.statIssuedInstType_0::FloatMultAcc            0      0.00%     66.32% # Number of instructions issued per FU type, per thread (Count)
system.cpu.statIssuedInstType_0::FloatDiv            0      0.00%     66.32% # Number of instructions issued per FU type, per thread (Count)
system.cpu.statIssuedInstType_0::FloatMisc        52415      0.07%     66.38% # Number of instructions issued per FU type, per thread (Count)
system.cpu.statIssuedInstType_0::FloatSqrt            0      0.00%     66.38% # Number of instructions issued per FU type, per thread (Count)
system.cpu.statIssuedInstType_0::SimdAdd        65575      0.08%     66.47% # Number of instructions issued per FU type, per thread (Count)
system.cpu.statIssuedInstType_0::SimdAddAcc            0      0.00%     66.47% # Number of instructions issued per FU type, per thread (Count)
system.cpu.statIssuedInstType_0::SimdAlu       131127      0.17%     66.63% # Number of instructions issued per FU type, per thread (Count)
system.cpu.statIssuedInstType_0::SimdCmp       131132      0.17%     66.80% # Number of instructions issued per FU type, per thread (Count)
system.cpu.statIssuedInstType_0::SimdCvt            0      0.00%     66.80% # Number of instructions issued per FU type, per thread (Count)
system.cpu.statIssuedInstType_0::SimdMisc       130294      0.17%     66.96% # Number of instructions issued per FU type, per thread (Count)
system.cpu.statIssuedInstType_0::SimdMult            0      0.00%     66.96% # Number of instructions issued per FU type, per thread (Count)
system.cpu.statIssuedInstType_0::SimdMultAcc            0      0.00%     66.96% # Number of instructions issued per FU type, per thread (Count)
system.cpu.statIssuedInstType_0::SimdShift            0      0.00%     66.96% # Number of instructions issued per FU type, per thread (Count)
system.cpu.statIssuedInstType_0::SimdShiftAcc            0      0.00%     66.96% # Number of instructions issued per FU type, per thread (Count)
system.cpu.statIssuedInstType_0::SimdDiv            0      0.00%     66.96% # Number of instructions issued per FU type, per thread (Count)
system.cpu.statIssuedInstType_0::SimdSqrt            0      0.00%     66.96% # Number of instructions issued per FU type, per thread (Count)
system.cpu.statIssuedInstType_0::SimdFloatAdd            0      0.00%     66.96% # Number of instructions issued per FU type, per thread (Count)
system.cpu.statIssuedInstType_0::SimdFloatAlu            0      0.00%     66.96% # Number of instructions issued per FU type, per thread (Count)
system.cpu.statIssuedInstType_0::SimdFloatCmp            0      0.00%     66.96% # Number of instructions issued per FU type, per thread (Count)
system.cpu.statIssuedInstType_0::SimdFloatCvt            0      0.00%     66.96% # Number of instructions issued per FU type, per thread (Count)
system.cpu.statIssuedInstType_0::SimdFloatDiv            0      0.00%     66.96% # Number of instructions issued per FU type, per thread (Count)
system.cpu.statIssuedInstType_0::SimdFloatMisc            0      0.00%     66.96% # Number of instructions issued per FU type, per thread (Count)
system.cpu.statIssuedInstType_0::SimdFloatMult            0      0.00%     66.96% # Number of instructions issued per FU type, per thread (Count)
system.cpu.statIssuedInstType_0::SimdFloatMultAcc            0      0.00%     66.96% # Number of instructions issued per FU type, per thread (Count)
system.cpu.statIssuedInstType_0::SimdFloatSqrt            0      0.00%     66.96% # Number of instructions issued per FU type, per thread (Count)
system.cpu.statIssuedInstType_0::SimdReduceAdd            0      0.00%     66.96% # Number of instructions issued per FU type, per thread (Count)
system.cpu.statIssuedInstType_0::SimdReduceAlu            0      0.00%     66.96% # Number of instructions issued per FU type, per thread (Count)
system.cpu.statIssuedInstType_0::SimdReduceCmp            0      0.00%     66.96% # Number of instructions issued per FU type, per thread (Count)
system.cpu.statIssuedInstType_0::SimdFloatReduceAdd            0      0.00%     66.96% # Number of instructions issued per FU type, per thread (Count)
system.cpu.statIssuedInstType_0::SimdFloatReduceCmp            0      0.00%     66.96% # Number of instructions issued per FU type, per thread (Count)
system.cpu.statIssuedInstType_0::SimdAes            0      0.00%     66.96% # Number of instructions issued per FU type, per thread (Count)
system.cpu.statIssuedInstType_0::SimdAesMix            0      0.00%     66.96% # Number of instructions issued per FU type, per thread (Count)
system.cpu.statIssuedInstType_0::SimdSha1Hash            0      0.00%     66.96% # Number of instructions issued per FU type, per thread (Count)
system.cpu.statIssuedInstType_0::SimdSha1Hash2            0      0.00%     66.96% # Number of instructions issued per FU type, per thread (Count)
system.cpu.statIssuedInstType_0::SimdSha256Hash            0      0.00%     66.96% # Number of instructions issued per FU type, per thread (Count)
system.cpu.statIssuedInstType_0::SimdSha256Hash2            0      0.00%     66.96% # Number of instructions issued per FU type, per thread (Count)
system.cpu.statIssuedInstType_0::SimdShaSigma2            0      0.00%     66.96% # Number of instructions issued per FU type, per thread (Count)
system.cpu.statIssuedInstType_0::SimdShaSigma3            0      0.00%     66.96% # Number of instructions issued per FU type, per thread (Count)
system.cpu.statIssuedInstType_0::SimdPredAlu            0      0.00%     66.96% # Number of instructions issued per FU type, per thread (Count)
system.cpu.statIssuedInstType_0::MemRead     14822516     18.84%     85.80% # Number of instructions issued per FU type, per thread (Count)
system.cpu.statIssuedInstType_0::MemWrite     11173077     14.20%    100.00% # Number of instructions issued per FU type, per thread (Count)
system.cpu.statIssuedInstType_0::FloatMemRead            0      0.00%    100.00% # Number of instructions issued per FU type, per thread (Count)
system.cpu.statIssuedInstType_0::FloatMemWrite            0      0.00%    100.00% # Number of instructions issued per FU type, per thread (Count)
system.cpu.statIssuedInstType_0::IprAccess            0      0.00%    100.00% # Number of instructions issued per FU type, per thread (Count)
system.cpu.statIssuedInstType_0::InstPrefetch            0      0.00%    100.00% # Number of instructions issued per FU type, per thread (Count)
system.cpu.statIssuedInstType_0::total       78688548                       # Number of instructions issued per FU type, per thread (Count)
system.cpu.issueRate                         2.518093                       # Inst issue rate ((Count/Cycle))
system.cpu.fuBusy                             2521411                       # FU busy when requested (Count)
system.cpu.fuBusyRate                        0.032043                       # FU busy rate (busy events/executed inst) ((Count/Count))
system.cpu.intInstQueueReads                186178952                       # Number of integer instruction queue reads (Count)
system.cpu.intInstQueueWrites                80441198                       # Number of integer instruction queue writes (Count)
system.cpu.intInstQueueWakeupAccesses        75258943                       # Number of integer instruction queue wakeup accesses (Count)
system.cpu.fpInstQueueReads                         0                       # Number of floating instruction queue reads (Count)
system.cpu.fpInstQueueWrites                        0                       # Number of floating instruction queue writes (Count)
system.cpu.fpInstQueueWakeupAccesses                0                       # Number of floating instruction queue wakeup accesses (Count)
system.cpu.vecInstQueueReads                  4904436                       # Number of vector instruction queue reads (Count)
system.cpu.vecInstQueueWrites                 3224874                       # Number of vector instruction queue writes (Count)
system.cpu.vecInstQueueWakeupAccesses         1957664                       # Number of vector instruction queue wakeup accesses (Count)
system.cpu.intAluAccesses                    78566959                       # Number of integer alu accesses (Count)
system.cpu.fpAluAccesses                            0                       # Number of floating point alu accesses (Count)
system.cpu.vecAluAccesses                     2511849                       # Number of vector alu accesses (Count)
system.cpu.numInsts                          78291517                       # Number of executed instructions (Count)
system.cpu.numLoadInsts                      14796276                       # Number of load instructions executed (Count)
system.cpu.numSquashedInsts                    397031                       # Number of squashed instructions skipped in execute (Count)
system.cpu.numSwp                                   0                       # Number of swp insts executed (Count)
system.cpu.numNop                              102216                       # Number of nop insts executed (Count)
system.cpu.numRefs                           25753792                       # Number of memory reference insts executed (Count)
system.cpu.numBranches                       13201092                       # Number of branches executed (Count)
system.cpu.numStoreInsts                     10957516                       # Number of stores executed (Count)
system.cpu.numRate                           2.505387                       # Inst execution rate ((Count/Cycle))
system.cpu.timesIdled                           12566                       # Number of times that the entire CPU went into an idle state and unscheduled itself (Count)
system.cpu.idleCycles                          326655                       # Total number of cycles that the CPU has spent unscheduled due to idling (Cycle)
system.cpu.committedInsts                    66863981                       # Number of Instructions Simulated (Count)
system.cpu.committedOps                      74319563                       # Number of Ops (including micro ops) Simulated (Count)
system.cpu.cpi                               0.467356                       # CPI: Cycles Per Instruction ((Cycle/Count))
system.cpu.totalCpi                          0.467356                       # CPI: Total CPI of All Threads ((Cycle/Count))
system.cpu.ipc                               2.139698                       # IPC: Instructions Per Cycle ((Count/Cycle))
system.cpu.totalIpc                          2.139698                       # IPC: Total IPC of All Threads ((Count/Cycle))
system.cpu.intRegfileReads                   90930129                       # Number of integer regfile reads (Count)
system.cpu.intRegfileWrites                  54943058                       # Number of integer regfile writes (Count)
system.cpu.vecRegfileReads                    2084236                       # number of vector regfile reads (Count)
system.cpu.vecRegfileWrites                    684386                       # number of vector regfile writes (Count)
system.cpu.ccRegfileReads                    24196587                       # number of cc regfile reads (Count)
system.cpu.ccRegfileWrites                   23992007                       # number of cc regfile writes (Count)
system.cpu.miscRegfileReads                 147016302                       # number of misc regfile reads (Count)
system.cpu.miscRegfileWrites                   282187                       # number of misc regfile writes (Count)
system.cpu.MemDepUnit__0.insertedLoads       14063987                       # Number of loads inserted to the mem dependence unit. (Count)
system.cpu.MemDepUnit__0.insertedStores      11804757                       # Number of stores inserted to the mem dependence unit. (Count)
system.cpu.MemDepUnit__0.conflictingLoads      2806207                       # Number of conflicting loads. (Count)
system.cpu.MemDepUnit__0.conflictingStores      1414668                       # Number of conflicting stores. (Count)
system.cpu.MemDepUnit__1.insertedLoads              0                       # Number of loads inserted to the mem dependence unit. (Count)
system.cpu.MemDepUnit__1.insertedStores             0                       # Number of stores inserted to the mem dependence unit. (Count)
system.cpu.MemDepUnit__1.conflictingLoads            0                       # Number of conflicting loads. (Count)
system.cpu.MemDepUnit__1.conflictingStores            0                       # Number of conflicting stores. (Count)
system.cpu.MemDepUnit__2.insertedLoads              0                       # Number of loads inserted to the mem dependence unit. (Count)
system.cpu.MemDepUnit__2.insertedStores             0                       # Number of stores inserted to the mem dependence unit. (Count)
system.cpu.MemDepUnit__2.conflictingLoads            0                       # Number of conflicting loads. (Count)
system.cpu.MemDepUnit__2.conflictingStores            0                       # Number of conflicting stores. (Count)
system.cpu.MemDepUnit__3.insertedLoads              0                       # Number of loads inserted to the mem dependence unit. (Count)
system.cpu.MemDepUnit__3.insertedStores             0                       # Number of stores inserted to the mem dependence unit. (Count)
system.cpu.MemDepUnit__3.conflictingLoads            0                       # Number of conflicting loads. (Count)
system.cpu.MemDepUnit__3.conflictingStores            0                       # Number of conflicting stores. (Count)
system.cpu.branchPred.lookups                13533475                       # Number of BP lookups (Count)
system.cpu.branchPred.condPredicted          10207096                       # Number of conditional branches predicted (Count)
system.cpu.branchPred.condIncorrect             68836                       # Number of conditional branches incorrect (Count)
system.cpu.branchPred.BTBLookups              6615354                       # Number of BTB lookups (Count)
system.cpu.branchPred.BTBHits                 6607343                       # Number of BTB hits (Count)
system.cpu.branchPred.BTBHitRatio            0.998789                       # BTB Hit Ratio (Ratio)
system.cpu.branchPred.RASUsed                  859727                       # Number of times the RAS was used to get a target. (Count)
system.cpu.branchPred.RASIncorrect                 28                       # Number of incorrect RAS predictions. (Count)
system.cpu.branchPred.indirectLookups          198129                       # Number of indirect predictor lookups. (Count)
system.cpu.branchPred.indirectHits             188057                       # Number of indirect target hits. (Count)
system.cpu.branchPred.indirectMisses            10072                       # Number of indirect misses. (Count)
system.cpu.branchPred.indirectMispredicted          196                       # Number of mispredicted indirect branches. (Count)
system.cpu.commit.commitSquashedInsts         4649630                       # The number of squashed insts skipped by commit (Count)
system.cpu.commit.commitNonSpecStalls          196810                       # The number of times commit has been forced to stall to communicate backwards (Count)
system.cpu.commit.branchMispredicts             66862                       # The number of times a branch was mispredicted (Count)
system.cpu.commit.numCommittedDist::samples     30268886                       # Number of insts commited each cycle (Count)
system.cpu.commit.numCommittedDist::mean     2.458627                       # Number of insts commited each cycle (Count)
system.cpu.commit.numCommittedDist::stdev     2.970747                       # Number of insts commited each cycle (Count)
system.cpu.commit.numCommittedDist::underflows            0      0.00%      0.00% # Number of insts commited each cycle (Count)
system.cpu.commit.numCommittedDist::0        11060515     36.54%     36.54% # Number of insts commited each cycle (Count)
system.cpu.commit.numCommittedDist::1         6363328     21.02%     57.56% # Number of insts commited each cycle (Count)
system.cpu.commit.numCommittedDist::2         2931462      9.68%     67.25% # Number of insts commited each cycle (Count)
system.cpu.commit.numCommittedDist::3         1846566      6.10%     73.35% # Number of insts commited each cycle (Count)
system.cpu.commit.numCommittedDist::4         1048910      3.47%     76.81% # Number of insts commited each cycle (Count)
system.cpu.commit.numCommittedDist::5          592686      1.96%     78.77% # Number of insts commited each cycle (Count)
system.cpu.commit.numCommittedDist::6          598055      1.98%     80.75% # Number of insts commited each cycle (Count)
system.cpu.commit.numCommittedDist::7          712354      2.35%     83.10% # Number of insts commited each cycle (Count)
system.cpu.commit.numCommittedDist::8         5115010     16.90%    100.00% # Number of insts commited each cycle (Count)
system.cpu.commit.numCommittedDist::overflows            0      0.00%    100.00% # Number of insts commited each cycle (Count)
system.cpu.commit.numCommittedDist::min_value            0                       # Number of insts commited each cycle (Count)
system.cpu.commit.numCommittedDist::max_value            8                       # Number of insts commited each cycle (Count)
system.cpu.commit.numCommittedDist::total     30268886                       # Number of insts commited each cycle (Count)
system.cpu.commit.instsCommitted             66964326                       # Number of instructions committed (Count)
system.cpu.commit.opsCommitted               74419908                       # Number of ops (including micro ops) committed (Count)
system.cpu.commit.memRefs                    23662016                       # Number of memory references committed (Count)
system.cpu.commit.loads                      13489990                       # Number of loads committed (Count)
system.cpu.commit.amos                          98358                       # Number of atomic instructions committed (Count)
system.cpu.commit.membars                       98368                       # Number of memory barriers committed (Count)
system.cpu.commit.branches                   13013099                       # Number of branches committed (Count)
system.cpu.commit.vectorInstructions          1601670                       # Number of committed Vector instructions. (Count)
system.cpu.commit.floating                          0                       # Number of committed floating point instructions. (Count)
system.cpu.commit.integer                    66341822                       # Number of committed integer instructions. (Count)
system.cpu.commit.functionCalls                844912                       # Number of function calls committed. (Count)
system.cpu.commit.committedInstType_0::No_OpClass       131142      0.18%      0.18% # Class of committed instruction (Count)
system.cpu.commit.committedInstType_0::IntAlu     49419636     66.41%     66.58% # Class of committed instruction (Count)
system.cpu.commit.committedInstType_0::IntMult       602541      0.81%     67.39% # Class of committed instruction (Count)
system.cpu.commit.committedInstType_0::IntDiv        25885      0.03%     67.43% # Class of committed instruction (Count)
system.cpu.commit.committedInstType_0::FloatAdd         2165      0.00%     67.43% # Class of committed instruction (Count)
system.cpu.commit.committedInstType_0::FloatCmp        65536      0.09%     67.52% # Class of committed instruction (Count)
system.cpu.commit.committedInstType_0::FloatCvt            0      0.00%     67.52% # Class of committed instruction (Count)
system.cpu.commit.committedInstType_0::FloatMult         1345      0.00%     67.52% # Class of committed instruction (Count)
system.cpu.commit.committedInstType_0::FloatMultAcc            0      0.00%     67.52% # Class of committed instruction (Count)
system.cpu.commit.committedInstType_0::FloatDiv            0      0.00%     67.52% # Class of committed instruction (Count)
system.cpu.commit.committedInstType_0::FloatMisc        51612      0.07%     67.59% # Class of committed instruction (Count)
system.cpu.commit.committedInstType_0::FloatSqrt            0      0.00%     67.59% # Class of committed instruction (Count)
system.cpu.commit.committedInstType_0::SimdAdd        65560      0.09%     67.68% # Class of committed instruction (Count)
system.cpu.commit.committedInstType_0::SimdAddAcc            0      0.00%     67.68% # Class of committed instruction (Count)
system.cpu.commit.committedInstType_0::SimdAlu       131100      0.18%     67.85% # Class of committed instruction (Count)
system.cpu.commit.committedInstType_0::SimdCmp       131096      0.18%     68.03% # Class of committed instruction (Count)
system.cpu.commit.committedInstType_0::SimdCvt            0      0.00%     68.03% # Class of committed instruction (Count)
system.cpu.commit.committedInstType_0::SimdMisc       130274      0.18%     68.20% # Class of committed instruction (Count)
system.cpu.commit.committedInstType_0::SimdMult            0      0.00%     68.20% # Class of committed instruction (Count)
system.cpu.commit.committedInstType_0::SimdMultAcc            0      0.00%     68.20% # Class of committed instruction (Count)
system.cpu.commit.committedInstType_0::SimdShift            0      0.00%     68.20% # Class of committed instruction (Count)
system.cpu.commit.committedInstType_0::SimdShiftAcc            0      0.00%     68.20% # Class of committed instruction (Count)
system.cpu.commit.committedInstType_0::SimdDiv            0      0.00%     68.20% # Class of committed instruction (Count)
system.cpu.commit.committedInstType_0::SimdSqrt            0      0.00%     68.20% # Class of committed instruction (Count)
system.cpu.commit.committedInstType_0::SimdFloatAdd            0      0.00%     68.20% # Class of committed instruction (Count)
system.cpu.commit.committedInstType_0::SimdFloatAlu            0      0.00%     68.20% # Class of committed instruction (Count)
system.cpu.commit.committedInstType_0::SimdFloatCmp            0      0.00%     68.20% # Class of committed instruction (Count)
system.cpu.commit.committedInstType_0::SimdFloatCvt            0      0.00%     68.20% # Class of committed instruction (Count)
system.cpu.commit.committedInstType_0::SimdFloatDiv            0      0.00%     68.20% # Class of committed instruction (Count)
system.cpu.commit.committedInstType_0::SimdFloatMisc            0      0.00%     68.20% # Class of committed instruction (Count)
system.cpu.commit.committedInstType_0::SimdFloatMult            0      0.00%     68.20% # Class of committed instruction (Count)
system.cpu.commit.committedInstType_0::SimdFloatMultAcc            0      0.00%     68.20% # Class of committed instruction (Count)
system.cpu.commit.committedInstType_0::SimdFloatSqrt            0      0.00%     68.20% # Class of committed instruction (Count)
system.cpu.commit.committedInstType_0::SimdReduceAdd            0      0.00%     68.20% # Class of committed instruction (Count)
system.cpu.commit.committedInstType_0::SimdReduceAlu            0      0.00%     68.20% # Class of committed instruction (Count)
system.cpu.commit.committedInstType_0::SimdReduceCmp            0      0.00%     68.20% # Class of committed instruction (Count)
system.cpu.commit.committedInstType_0::SimdFloatReduceAdd            0      0.00%     68.20% # Class of committed instruction (Count)
system.cpu.commit.committedInstType_0::SimdFloatReduceCmp            0      0.00%     68.20% # Class of committed instruction (Count)
system.cpu.commit.committedInstType_0::SimdAes            0      0.00%     68.20% # Class of committed instruction (Count)
system.cpu.commit.committedInstType_0::SimdAesMix            0      0.00%     68.20% # Class of committed instruction (Count)
system.cpu.commit.committedInstType_0::SimdSha1Hash            0      0.00%     68.20% # Class of committed instruction (Count)
system.cpu.commit.committedInstType_0::SimdSha1Hash2            0      0.00%     68.20% # Class of committed instruction (Count)
system.cpu.commit.committedInstType_0::SimdSha256Hash            0      0.00%     68.20% # Class of committed instruction (Count)
system.cpu.commit.committedInstType_0::SimdSha256Hash2            0      0.00%     68.20% # Class of committed instruction (Count)
system.cpu.commit.committedInstType_0::SimdShaSigma2            0      0.00%     68.20% # Class of committed instruction (Count)
system.cpu.commit.committedInstType_0::SimdShaSigma3            0      0.00%     68.20% # Class of committed instruction (Count)
system.cpu.commit.committedInstType_0::SimdPredAlu            0      0.00%     68.20% # Class of committed instruction (Count)
system.cpu.commit.committedInstType_0::MemRead     13489990     18.13%     86.33% # Class of committed instruction (Count)
system.cpu.commit.committedInstType_0::MemWrite     10172026     13.67%    100.00% # Class of committed instruction (Count)
system.cpu.commit.committedInstType_0::FloatMemRead            0      0.00%    100.00% # Class of committed instruction (Count)
system.cpu.commit.committedInstType_0::FloatMemWrite            0      0.00%    100.00% # Class of committed instruction (Count)
system.cpu.commit.committedInstType_0::IprAccess            0      0.00%    100.00% # Class of committed instruction (Count)
system.cpu.commit.committedInstType_0::InstPrefetch            0      0.00%    100.00% # Class of committed instruction (Count)
system.cpu.commit.committedInstType_0::total     74419908                       # Class of committed instruction (Count)
system.cpu.commit.commitEligibleSamples       5115010                       # number cycles where commit BW limit reached (Cycle)
system.cpu.dcache.demandHits::cpu.data       22237732                       # number of demand (read+write) hits (Count)
system.cpu.dcache.demandHits::total          22237732                       # number of demand (read+write) hits (Count)
system.cpu.dcache.overallHits::cpu.data      22276497                       # number of overall hits (Count)
system.cpu.dcache.overallHits::total         22276497                       # number of overall hits (Count)
system.cpu.dcache.demandMisses::cpu.data       134803                       # number of demand (read+write) misses (Count)
system.cpu.dcache.demandMisses::total          134803                       # number of demand (read+write) misses (Count)
system.cpu.dcache.overallMisses::cpu.data       134809                       # number of overall misses (Count)
system.cpu.dcache.overallMisses::total         134809                       # number of overall misses (Count)
system.cpu.dcache.demandMissLatency::cpu.data   8723390463                       # number of demand (read+write) miss ticks (Tick)
system.cpu.dcache.demandMissLatency::total   8723390463                       # number of demand (read+write) miss ticks (Tick)
system.cpu.dcache.overallMissLatency::cpu.data   8723390463                       # number of overall miss ticks (Tick)
system.cpu.dcache.overallMissLatency::total   8723390463                       # number of overall miss ticks (Tick)
system.cpu.dcache.demandAccesses::cpu.data     22372535                       # number of demand (read+write) accesses (Count)
system.cpu.dcache.demandAccesses::total      22372535                       # number of demand (read+write) accesses (Count)
system.cpu.dcache.overallAccesses::cpu.data     22411306                       # number of overall (read+write) accesses (Count)
system.cpu.dcache.overallAccesses::total     22411306                       # number of overall (read+write) accesses (Count)
system.cpu.dcache.demandMissRate::cpu.data     0.006025                       # miss rate for demand accesses (Ratio)
system.cpu.dcache.demandMissRate::total      0.006025                       # miss rate for demand accesses (Ratio)
system.cpu.dcache.overallMissRate::cpu.data     0.006015                       # miss rate for overall accesses (Ratio)
system.cpu.dcache.overallMissRate::total     0.006015                       # miss rate for overall accesses (Ratio)
system.cpu.dcache.demandAvgMissLatency::cpu.data 64712.138921                       # average overall miss latency ((Cycle/Count))
system.cpu.dcache.demandAvgMissLatency::total 64712.138921                       # average overall miss latency ((Cycle/Count))
system.cpu.dcache.overallAvgMissLatency::cpu.data 64709.258751                       # average overall miss latency ((Cycle/Count))
system.cpu.dcache.overallAvgMissLatency::total 64709.258751                       # average overall miss latency ((Cycle/Count))
system.cpu.dcache.blockedCycles::no_mshrs       656656                       # number of cycles access was blocked (Cycle)
system.cpu.dcache.blockedCycles::no_targets            0                       # number of cycles access was blocked (Cycle)
system.cpu.dcache.blockedCauses::no_mshrs        17266                       # number of times access was blocked (Count)
system.cpu.dcache.blockedCauses::no_targets            0                       # number of times access was blocked (Count)
system.cpu.dcache.avgBlocked::no_mshrs      38.031739                       # average number of cycles each access was blocked ((Cycle/Count))
system.cpu.dcache.avgBlocked::no_targets          nan                       # average number of cycles each access was blocked ((Cycle/Count))
system.cpu.dcache.writebacks::writebacks        15268                       # number of writebacks (Count)
system.cpu.dcache.writebacks::total             15268                       # number of writebacks (Count)
system.cpu.dcache.demandMshrHits::cpu.data       104395                       # number of demand (read+write) MSHR hits (Count)
system.cpu.dcache.demandMshrHits::total        104395                       # number of demand (read+write) MSHR hits (Count)
system.cpu.dcache.overallMshrHits::cpu.data       104395                       # number of overall MSHR hits (Count)
system.cpu.dcache.overallMshrHits::total       104395                       # number of overall MSHR hits (Count)
system.cpu.dcache.demandMshrMisses::cpu.data        30408                       # number of demand (read+write) MSHR misses (Count)
system.cpu.dcache.demandMshrMisses::total        30408                       # number of demand (read+write) MSHR misses (Count)
system.cpu.dcache.overallMshrMisses::cpu.data        30414                       # number of overall MSHR misses (Count)
system.cpu.dcache.overallMshrMisses::total        30414                       # number of overall MSHR misses (Count)
system.cpu.dcache.demandMshrMissLatency::cpu.data   2127474428                       # number of demand (read+write) MSHR miss ticks (Tick)
system.cpu.dcache.demandMshrMissLatency::total   2127474428                       # number of demand (read+write) MSHR miss ticks (Tick)
system.cpu.dcache.overallMshrMissLatency::cpu.data   2127889428                       # number of overall MSHR miss ticks (Tick)
system.cpu.dcache.overallMshrMissLatency::total   2127889428                       # number of overall MSHR miss ticks (Tick)
system.cpu.dcache.demandMshrMissRate::cpu.data     0.001359                       # mshr miss ratio for demand accesses (Ratio)
system.cpu.dcache.demandMshrMissRate::total     0.001359                       # mshr miss ratio for demand accesses (Ratio)
system.cpu.dcache.overallMshrMissRate::cpu.data     0.001357                       # mshr miss ratio for overall accesses (Ratio)
system.cpu.dcache.overallMshrMissRate::total     0.001357                       # mshr miss ratio for overall accesses (Ratio)
system.cpu.dcache.demandAvgMshrMissLatency::cpu.data 69964.299790                       # average overall mshr miss latency ((Cycle/Count))
system.cpu.dcache.demandAvgMshrMissLatency::total 69964.299790                       # average overall mshr miss latency ((Cycle/Count))
system.cpu.dcache.overallAvgMshrMissLatency::cpu.data 69964.142434                       # average overall mshr miss latency ((Cycle/Count))
system.cpu.dcache.overallAvgMshrMissLatency::total 69964.142434                       # average overall mshr miss latency ((Cycle/Count))
system.cpu.dcache.replacements                  28369                       # number of replacements (Count)
system.cpu.dcache.LoadLockedReq.hits::cpu.data           40                       # number of LoadLockedReq hits (Count)
system.cpu.dcache.LoadLockedReq.hits::total           40                       # number of LoadLockedReq hits (Count)
system.cpu.dcache.LoadLockedReq.misses::cpu.data            6                       # number of LoadLockedReq misses (Count)
system.cpu.dcache.LoadLockedReq.misses::total            6                       # number of LoadLockedReq misses (Count)
system.cpu.dcache.LoadLockedReq.missLatency::cpu.data       406500                       # number of LoadLockedReq miss ticks (Tick)
system.cpu.dcache.LoadLockedReq.missLatency::total       406500                       # number of LoadLockedReq miss ticks (Tick)
system.cpu.dcache.LoadLockedReq.accesses::cpu.data           46                       # number of LoadLockedReq accesses(hits+misses) (Count)
system.cpu.dcache.LoadLockedReq.accesses::total           46                       # number of LoadLockedReq accesses(hits+misses) (Count)
system.cpu.dcache.LoadLockedReq.missRate::cpu.data     0.130435                       # miss rate for LoadLockedReq accesses (Ratio)
system.cpu.dcache.LoadLockedReq.missRate::total     0.130435                       # miss rate for LoadLockedReq accesses (Ratio)
system.cpu.dcache.LoadLockedReq.avgMissLatency::cpu.data        67750                       # average LoadLockedReq miss latency ((Tick/Count))
system.cpu.dcache.LoadLockedReq.avgMissLatency::total        67750                       # average LoadLockedReq miss latency ((Tick/Count))
system.cpu.dcache.LoadLockedReq.mshrHits::cpu.data            3                       # number of LoadLockedReq MSHR hits (Count)
system.cpu.dcache.LoadLockedReq.mshrHits::total            3                       # number of LoadLockedReq MSHR hits (Count)
system.cpu.dcache.LoadLockedReq.mshrMisses::cpu.data            3                       # number of LoadLockedReq MSHR misses (Count)
system.cpu.dcache.LoadLockedReq.mshrMisses::total            3                       # number of LoadLockedReq MSHR misses (Count)
system.cpu.dcache.LoadLockedReq.mshrMissLatency::cpu.data       269500                       # number of LoadLockedReq MSHR miss ticks (Tick)
system.cpu.dcache.LoadLockedReq.mshrMissLatency::total       269500                       # number of LoadLockedReq MSHR miss ticks (Tick)
system.cpu.dcache.LoadLockedReq.mshrMissRate::cpu.data     0.065217                       # mshr miss rate for LoadLockedReq accesses (Ratio)
system.cpu.dcache.LoadLockedReq.mshrMissRate::total     0.065217                       # mshr miss rate for LoadLockedReq accesses (Ratio)
system.cpu.dcache.LoadLockedReq.avgMshrMissLatency::cpu.data 89833.333333                       # average LoadLockedReq mshr miss latency ((Tick/Count))
system.cpu.dcache.LoadLockedReq.avgMshrMissLatency::total 89833.333333                       # average LoadLockedReq mshr miss latency ((Tick/Count))
system.cpu.dcache.ReadReq.hits::cpu.data     12232287                       # number of ReadReq hits (Count)
system.cpu.dcache.ReadReq.hits::total        12232287                       # number of ReadReq hits (Count)
system.cpu.dcache.ReadReq.misses::cpu.data        66583                       # number of ReadReq misses (Count)
system.cpu.dcache.ReadReq.misses::total         66583                       # number of ReadReq misses (Count)
system.cpu.dcache.ReadReq.missLatency::cpu.data   4523138500                       # number of ReadReq miss ticks (Tick)
system.cpu.dcache.ReadReq.missLatency::total   4523138500                       # number of ReadReq miss ticks (Tick)
system.cpu.dcache.ReadReq.accesses::cpu.data     12298870                       # number of ReadReq accesses(hits+misses) (Count)
system.cpu.dcache.ReadReq.accesses::total     12298870                       # number of ReadReq accesses(hits+misses) (Count)
system.cpu.dcache.ReadReq.missRate::cpu.data     0.005414                       # miss rate for ReadReq accesses (Ratio)
system.cpu.dcache.ReadReq.missRate::total     0.005414                       # miss rate for ReadReq accesses (Ratio)
system.cpu.dcache.ReadReq.avgMissLatency::cpu.data 67932.332577                       # average ReadReq miss latency ((Tick/Count))
system.cpu.dcache.ReadReq.avgMissLatency::total 67932.332577                       # average ReadReq miss latency ((Tick/Count))
system.cpu.dcache.ReadReq.mshrHits::cpu.data        51220                       # number of ReadReq MSHR hits (Count)
system.cpu.dcache.ReadReq.mshrHits::total        51220                       # number of ReadReq MSHR hits (Count)
system.cpu.dcache.ReadReq.mshrMisses::cpu.data        15363                       # number of ReadReq MSHR misses (Count)
system.cpu.dcache.ReadReq.mshrMisses::total        15363                       # number of ReadReq MSHR misses (Count)
system.cpu.dcache.ReadReq.mshrMissLatency::cpu.data   1165854000                       # number of ReadReq MSHR miss ticks (Tick)
system.cpu.dcache.ReadReq.mshrMissLatency::total   1165854000                       # number of ReadReq MSHR miss ticks (Tick)
system.cpu.dcache.ReadReq.mshrMissRate::cpu.data     0.001249                       # mshr miss rate for ReadReq accesses (Ratio)
system.cpu.dcache.ReadReq.mshrMissRate::total     0.001249                       # mshr miss rate for ReadReq accesses (Ratio)
system.cpu.dcache.ReadReq.avgMshrMissLatency::cpu.data 75887.131420                       # average ReadReq mshr miss latency ((Tick/Count))
system.cpu.dcache.ReadReq.avgMshrMissLatency::total 75887.131420                       # average ReadReq mshr miss latency ((Tick/Count))
system.cpu.dcache.SoftPFReq.hits::cpu.data        38765                       # number of SoftPFReq hits (Count)
system.cpu.dcache.SoftPFReq.hits::total         38765                       # number of SoftPFReq hits (Count)
system.cpu.dcache.SoftPFReq.misses::cpu.data            6                       # number of SoftPFReq misses (Count)
system.cpu.dcache.SoftPFReq.misses::total            6                       # number of SoftPFReq misses (Count)
system.cpu.dcache.SoftPFReq.accesses::cpu.data        38771                       # number of SoftPFReq accesses(hits+misses) (Count)
system.cpu.dcache.SoftPFReq.accesses::total        38771                       # number of SoftPFReq accesses(hits+misses) (Count)
system.cpu.dcache.SoftPFReq.missRate::cpu.data     0.000155                       # miss rate for SoftPFReq accesses (Ratio)
system.cpu.dcache.SoftPFReq.missRate::total     0.000155                       # miss rate for SoftPFReq accesses (Ratio)
system.cpu.dcache.SoftPFReq.mshrMisses::cpu.data            6                       # number of SoftPFReq MSHR misses (Count)
system.cpu.dcache.SoftPFReq.mshrMisses::total            6                       # number of SoftPFReq MSHR misses (Count)
system.cpu.dcache.SoftPFReq.mshrMissLatency::cpu.data       415000                       # number of SoftPFReq MSHR miss ticks (Tick)
system.cpu.dcache.SoftPFReq.mshrMissLatency::total       415000                       # number of SoftPFReq MSHR miss ticks (Tick)
system.cpu.dcache.SoftPFReq.mshrMissRate::cpu.data     0.000155                       # mshr miss rate for SoftPFReq accesses (Ratio)
system.cpu.dcache.SoftPFReq.mshrMissRate::total     0.000155                       # mshr miss rate for SoftPFReq accesses (Ratio)
system.cpu.dcache.SoftPFReq.avgMshrMissLatency::cpu.data 69166.666667                       # average SoftPFReq mshr miss latency ((Tick/Count))
system.cpu.dcache.SoftPFReq.avgMshrMissLatency::total 69166.666667                       # average SoftPFReq mshr miss latency ((Tick/Count))
system.cpu.dcache.StoreCondReq.hits::cpu.data           10                       # number of StoreCondReq hits (Count)
system.cpu.dcache.StoreCondReq.hits::total           10                       # number of StoreCondReq hits (Count)
system.cpu.dcache.StoreCondReq.accesses::cpu.data           10                       # number of StoreCondReq accesses(hits+misses) (Count)
system.cpu.dcache.StoreCondReq.accesses::total           10                       # number of StoreCondReq accesses(hits+misses) (Count)
system.cpu.dcache.SwapReq.hits::cpu.data        98357                       # number of SwapReq hits (Count)
system.cpu.dcache.SwapReq.hits::total           98357                       # number of SwapReq hits (Count)
system.cpu.dcache.SwapReq.misses::cpu.data            1                       # number of SwapReq misses (Count)
system.cpu.dcache.SwapReq.misses::total             1                       # number of SwapReq misses (Count)
system.cpu.dcache.SwapReq.missLatency::cpu.data        64000                       # number of SwapReq miss ticks (Tick)
system.cpu.dcache.SwapReq.missLatency::total        64000                       # number of SwapReq miss ticks (Tick)
system.cpu.dcache.SwapReq.accesses::cpu.data        98358                       # number of SwapReq accesses(hits+misses) (Count)
system.cpu.dcache.SwapReq.accesses::total        98358                       # number of SwapReq accesses(hits+misses) (Count)
system.cpu.dcache.SwapReq.missRate::cpu.data     0.000010                       # miss rate for SwapReq accesses (Ratio)
system.cpu.dcache.SwapReq.missRate::total     0.000010                       # miss rate for SwapReq accesses (Ratio)
system.cpu.dcache.SwapReq.avgMissLatency::cpu.data        64000                       # average SwapReq miss latency ((Tick/Count))
system.cpu.dcache.SwapReq.avgMissLatency::total        64000                       # average SwapReq miss latency ((Tick/Count))
system.cpu.dcache.SwapReq.mshrHits::cpu.data            1                       # number of SwapReq MSHR hits (Count)
system.cpu.dcache.SwapReq.mshrHits::total            1                       # number of SwapReq MSHR hits (Count)
system.cpu.dcache.WriteLineReq.misses::cpu.data         2054                       # number of WriteLineReq misses (Count)
system.cpu.dcache.WriteLineReq.misses::total         2054                       # number of WriteLineReq misses (Count)
system.cpu.dcache.WriteLineReq.missLatency::cpu.data     40423433                       # number of WriteLineReq miss ticks (Tick)
system.cpu.dcache.WriteLineReq.missLatency::total     40423433                       # number of WriteLineReq miss ticks (Tick)
system.cpu.dcache.WriteLineReq.accesses::cpu.data         2054                       # number of WriteLineReq accesses(hits+misses) (Count)
system.cpu.dcache.WriteLineReq.accesses::total         2054                       # number of WriteLineReq accesses(hits+misses) (Count)
system.cpu.dcache.WriteLineReq.missRate::cpu.data            1                       # miss rate for WriteLineReq accesses (Ratio)
system.cpu.dcache.WriteLineReq.missRate::total            1                       # miss rate for WriteLineReq accesses (Ratio)
system.cpu.dcache.WriteLineReq.avgMissLatency::cpu.data 19680.347128                       # average WriteLineReq miss latency ((Tick/Count))
system.cpu.dcache.WriteLineReq.avgMissLatency::total 19680.347128                       # average WriteLineReq miss latency ((Tick/Count))
system.cpu.dcache.WriteLineReq.mshrMisses::cpu.data         2054                       # number of WriteLineReq MSHR misses (Count)
system.cpu.dcache.WriteLineReq.mshrMisses::total         2054                       # number of WriteLineReq MSHR misses (Count)
system.cpu.dcache.WriteLineReq.mshrMissLatency::cpu.data     38369433                       # number of WriteLineReq MSHR miss ticks (Tick)
system.cpu.dcache.WriteLineReq.mshrMissLatency::total     38369433                       # number of WriteLineReq MSHR miss ticks (Tick)
system.cpu.dcache.WriteLineReq.mshrMissRate::cpu.data            1                       # mshr miss rate for WriteLineReq accesses (Ratio)
system.cpu.dcache.WriteLineReq.mshrMissRate::total            1                       # mshr miss rate for WriteLineReq accesses (Ratio)
system.cpu.dcache.WriteLineReq.avgMshrMissLatency::cpu.data 18680.347128                       # average WriteLineReq mshr miss latency ((Tick/Count))
system.cpu.dcache.WriteLineReq.avgMshrMissLatency::total 18680.347128                       # average WriteLineReq mshr miss latency ((Tick/Count))
system.cpu.dcache.WriteReq.hits::cpu.data     10005445                       # number of WriteReq hits (Count)
system.cpu.dcache.WriteReq.hits::total       10005445                       # number of WriteReq hits (Count)
system.cpu.dcache.WriteReq.misses::cpu.data        66166                       # number of WriteReq misses (Count)
system.cpu.dcache.WriteReq.misses::total        66166                       # number of WriteReq misses (Count)
system.cpu.dcache.WriteReq.missLatency::cpu.data   4159828530                       # number of WriteReq miss ticks (Tick)
system.cpu.dcache.WriteReq.missLatency::total   4159828530                       # number of WriteReq miss ticks (Tick)
system.cpu.dcache.WriteReq.accesses::cpu.data     10071611                       # number of WriteReq accesses(hits+misses) (Count)
system.cpu.dcache.WriteReq.accesses::total     10071611                       # number of WriteReq accesses(hits+misses) (Count)
system.cpu.dcache.WriteReq.missRate::cpu.data     0.006570                       # miss rate for WriteReq accesses (Ratio)
system.cpu.dcache.WriteReq.missRate::total     0.006570                       # miss rate for WriteReq accesses (Ratio)
system.cpu.dcache.WriteReq.avgMissLatency::cpu.data 62869.578484                       # average WriteReq miss latency ((Tick/Count))
system.cpu.dcache.WriteReq.avgMissLatency::total 62869.578484                       # average WriteReq miss latency ((Tick/Count))
system.cpu.dcache.WriteReq.mshrHits::cpu.data        53175                       # number of WriteReq MSHR hits (Count)
system.cpu.dcache.WriteReq.mshrHits::total        53175                       # number of WriteReq MSHR hits (Count)
system.cpu.dcache.WriteReq.mshrMisses::cpu.data        12991                       # number of WriteReq MSHR misses (Count)
system.cpu.dcache.WriteReq.mshrMisses::total        12991                       # number of WriteReq MSHR misses (Count)
system.cpu.dcache.WriteReq.mshrMissLatency::cpu.data    923250995                       # number of WriteReq MSHR miss ticks (Tick)
system.cpu.dcache.WriteReq.mshrMissLatency::total    923250995                       # number of WriteReq MSHR miss ticks (Tick)
system.cpu.dcache.WriteReq.mshrMissRate::cpu.data     0.001290                       # mshr miss rate for WriteReq accesses (Ratio)
system.cpu.dcache.WriteReq.mshrMissRate::total     0.001290                       # mshr miss rate for WriteReq accesses (Ratio)
system.cpu.dcache.WriteReq.avgMshrMissLatency::cpu.data 71068.508583                       # average WriteReq mshr miss latency ((Tick/Count))
system.cpu.dcache.WriteReq.avgMshrMissLatency::total 71068.508583                       # average WriteReq mshr miss latency ((Tick/Count))
system.cpu.dcache.power_state.pwrStateResidencyTicks::UNDEFINED  15624633500                       # Cumulative time (in ticks) in various power states (Tick)
system.cpu.dcache.tags.tagsInUse          1908.401433                       # Average ticks per tags in use ((Tick/Count))
system.cpu.dcache.tags.totalRefs             22405321                       # Total number of references to valid blocks. (Count)
system.cpu.dcache.tags.sampledRefs              30417                       # Sample count of references to valid blocks. (Count)
system.cpu.dcache.tags.avgRefs             736.605221                       # Average number of references to valid blocks. ((Count/Count))
system.cpu.dcache.tags.warmupTick              145000                       # The tick when the warmup percentage was hit. (Tick)
system.cpu.dcache.tags.occupancies::cpu.data  1908.401433                       # Average occupied blocks per tick, per requestor ((Count/Tick))
system.cpu.dcache.tags.avgOccs::cpu.data     0.931837                       # Average percentage of cache occupancy ((Ratio/Tick))
system.cpu.dcache.tags.avgOccs::total        0.931837                       # Average percentage of cache occupancy ((Ratio/Tick))
system.cpu.dcache.tags.occupanciesTaskId::1024         2048                       # Occupied blocks per task id (Count)
system.cpu.dcache.tags.ageTaskId_1024::0           73                       # Occupied blocks per task id, per block age (Count)
system.cpu.dcache.tags.ageTaskId_1024::1           19                       # Occupied blocks per task id, per block age (Count)
system.cpu.dcache.tags.ageTaskId_1024::2          231                       # Occupied blocks per task id, per block age (Count)
system.cpu.dcache.tags.ageTaskId_1024::3         1725                       # Occupied blocks per task id, per block age (Count)
system.cpu.dcache.tags.ratioOccsTaskId::1024            1                       # Ratio of occupied blocks and all blocks, per task id (Ratio)
system.cpu.dcache.tags.tagAccesses           45049857                       # Number of tag accesses (Count)
system.cpu.dcache.tags.dataAccesses          45049857                       # Number of data accesses (Count)
system.cpu.dcache.tags.power_state.pwrStateResidencyTicks::UNDEFINED  15624633500                       # Cumulative time (in ticks) in various power states (Tick)
system.cpu.decode.idleCycles                  9800160                       # Number of cycles decode is idle (Cycle)
system.cpu.decode.blockedCycles               5691784                       # Number of cycles decode is blocked (Cycle)
system.cpu.decode.runCycles                  14577083                       # Number of cycles decode is running (Cycle)
system.cpu.decode.unblockCycles                735706                       # Number of cycles decode is unblocking (Cycle)
system.cpu.decode.squashCycles                 117880                       # Number of cycles decode is squashing (Cycle)
system.cpu.decode.branchResolved              6569693                       # Number of times decode resolved a branch (Count)
system.cpu.decode.branchMispred                  1984                       # Number of times decode detected a branch misprediction (Count)
system.cpu.decode.decodedInsts               79950021                       # Number of instructions handled by decode (Count)
system.cpu.decode.squashedInsts                 12314                       # Number of squashed instructions handled by decode (Count)
system.cpu.fetch.icacheStallCycles           11115466                       # Number of cycles fetch is stalled on an Icache miss (Cycle)
system.cpu.fetch.insts                       71865766                       # Number of instructions fetch has processed (Count)
system.cpu.fetch.branches                    13533475                       # Number of branches that fetch encountered (Count)
system.cpu.fetch.predictedBranches            7655127                       # Number of branches that fetch has predicted taken (Count)
system.cpu.fetch.cycles                      19687179                       # Number of cycles fetch has run and was not squashing or blocked (Cycle)
system.cpu.fetch.squashCycles                  239708                       # Number of cycles fetch has spent squashing (Cycle)
system.cpu.fetch.miscStallCycles                    8                       # Number of cycles fetch has spent waiting on interrupts, or bad addresses, or out of MSHRs (Cycle)
system.cpu.fetch.icacheWaitRetryStallCycles          106                       # Number of stall cycles due to full MSHR (Cycle)
system.cpu.fetch.cacheLines                  10729979                       # Number of cache lines fetched (Count)
system.cpu.fetch.icacheSquashes                 70098                       # Number of outstanding Icache misses that were squashed (Count)
system.cpu.fetch.nisnDist::samples           30922613                       # Number of instructions fetched each cycle (Total) (Count)
system.cpu.fetch.nisnDist::mean              2.627202                       # Number of instructions fetched each cycle (Total) (Count)
system.cpu.fetch.nisnDist::stdev             3.169949                       # Number of instructions fetched each cycle (Total) (Count)
system.cpu.fetch.nisnDist::underflows               0      0.00%      0.00% # Number of instructions fetched each cycle (Total) (Count)
system.cpu.fetch.nisnDist::0                 14615149     47.26%     47.26% # Number of instructions fetched each cycle (Total) (Count)
system.cpu.fetch.nisnDist::1                  2357597      7.62%     54.89% # Number of instructions fetched each cycle (Total) (Count)
system.cpu.fetch.nisnDist::2                  1926863      6.23%     61.12% # Number of instructions fetched each cycle (Total) (Count)
system.cpu.fetch.nisnDist::3                  1779150      5.75%     66.87% # Number of instructions fetched each cycle (Total) (Count)
system.cpu.fetch.nisnDist::4                  1492733      4.83%     71.70% # Number of instructions fetched each cycle (Total) (Count)
system.cpu.fetch.nisnDist::5                  1120001      3.62%     75.32% # Number of instructions fetched each cycle (Total) (Count)
system.cpu.fetch.nisnDist::6                   869946      2.81%     78.14% # Number of instructions fetched each cycle (Total) (Count)
system.cpu.fetch.nisnDist::7                  1188817      3.84%     81.98% # Number of instructions fetched each cycle (Total) (Count)
system.cpu.fetch.nisnDist::8                  5572357     18.02%    100.00% # Number of instructions fetched each cycle (Total) (Count)
system.cpu.fetch.nisnDist::overflows                0      0.00%    100.00% # Number of instructions fetched each cycle (Total) (Count)
system.cpu.fetch.nisnDist::min_value                0                       # Number of instructions fetched each cycle (Total) (Count)
system.cpu.fetch.nisnDist::max_value                8                       # Number of instructions fetched each cycle (Total) (Count)
system.cpu.fetch.nisnDist::total             30922613                       # Number of instructions fetched each cycle (Total) (Count)
system.cpu.fetch.branchRate                  0.433081                       # Number of branch fetches per cycle (Ratio)
system.cpu.fetch.rate                        2.299758                       # Number of inst fetches per cycle ((Count/Cycle))
system.cpu.icache.demandHits::cpu.inst       10715509                       # number of demand (read+write) hits (Count)
system.cpu.icache.demandHits::total          10715509                       # number of demand (read+write) hits (Count)
system.cpu.icache.overallHits::cpu.inst      10715509                       # number of overall hits (Count)
system.cpu.icache.overallHits::total         10715509                       # number of overall hits (Count)
system.cpu.icache.demandMisses::cpu.inst        14470                       # number of demand (read+write) misses (Count)
system.cpu.icache.demandMisses::total           14470                       # number of demand (read+write) misses (Count)
system.cpu.icache.overallMisses::cpu.inst        14470                       # number of overall misses (Count)
system.cpu.icache.overallMisses::total          14470                       # number of overall misses (Count)
system.cpu.icache.demandMissLatency::cpu.inst    414153497                       # number of demand (read+write) miss ticks (Tick)
system.cpu.icache.demandMissLatency::total    414153497                       # number of demand (read+write) miss ticks (Tick)
system.cpu.icache.overallMissLatency::cpu.inst    414153497                       # number of overall miss ticks (Tick)
system.cpu.icache.overallMissLatency::total    414153497                       # number of overall miss ticks (Tick)
system.cpu.icache.demandAccesses::cpu.inst     10729979                       # number of demand (read+write) accesses (Count)
system.cpu.icache.demandAccesses::total      10729979                       # number of demand (read+write) accesses (Count)
system.cpu.icache.overallAccesses::cpu.inst     10729979                       # number of overall (read+write) accesses (Count)
system.cpu.icache.overallAccesses::total     10729979                       # number of overall (read+write) accesses (Count)
system.cpu.icache.demandMissRate::cpu.inst     0.001349                       # miss rate for demand accesses (Ratio)
system.cpu.icache.demandMissRate::total      0.001349                       # miss rate for demand accesses (Ratio)
system.cpu.icache.overallMissRate::cpu.inst     0.001349                       # miss rate for overall accesses (Ratio)
system.cpu.icache.overallMissRate::total     0.001349                       # miss rate for overall accesses (Ratio)
system.cpu.icache.demandAvgMissLatency::cpu.inst 28621.527091                       # average overall miss latency ((Cycle/Count))
system.cpu.icache.demandAvgMissLatency::total 28621.527091                       # average overall miss latency ((Cycle/Count))
system.cpu.icache.overallAvgMissLatency::cpu.inst 28621.527091                       # average overall miss latency ((Cycle/Count))
system.cpu.icache.overallAvgMissLatency::total 28621.527091                       # average overall miss latency ((Cycle/Count))
system.cpu.icache.blockedCycles::no_mshrs         1303                       # number of cycles access was blocked (Cycle)
system.cpu.icache.blockedCycles::no_targets            0                       # number of cycles access was blocked (Cycle)
system.cpu.icache.blockedCauses::no_mshrs           21                       # number of times access was blocked (Count)
system.cpu.icache.blockedCauses::no_targets            0                       # number of times access was blocked (Count)
system.cpu.icache.avgBlocked::no_mshrs      62.047619                       # average number of cycles each access was blocked ((Cycle/Count))
system.cpu.icache.avgBlocked::no_targets          nan                       # average number of cycles each access was blocked ((Cycle/Count))
system.cpu.icache.writebacks::writebacks        13103                       # number of writebacks (Count)
system.cpu.icache.writebacks::total             13103                       # number of writebacks (Count)
system.cpu.icache.demandMshrHits::cpu.inst          866                       # number of demand (read+write) MSHR hits (Count)
system.cpu.icache.demandMshrHits::total           866                       # number of demand (read+write) MSHR hits (Count)
system.cpu.icache.overallMshrHits::cpu.inst          866                       # number of overall MSHR hits (Count)
system.cpu.icache.overallMshrHits::total          866                       # number of overall MSHR hits (Count)
system.cpu.icache.demandMshrMisses::cpu.inst        13604                       # number of demand (read+write) MSHR misses (Count)
system.cpu.icache.demandMshrMisses::total        13604                       # number of demand (read+write) MSHR misses (Count)
system.cpu.icache.overallMshrMisses::cpu.inst        13604                       # number of overall MSHR misses (Count)
system.cpu.icache.overallMshrMisses::total        13604                       # number of overall MSHR misses (Count)
system.cpu.icache.demandMshrMissLatency::cpu.inst    373275998                       # number of demand (read+write) MSHR miss ticks (Tick)
system.cpu.icache.demandMshrMissLatency::total    373275998                       # number of demand (read+write) MSHR miss ticks (Tick)
system.cpu.icache.overallMshrMissLatency::cpu.inst    373275998                       # number of overall MSHR miss ticks (Tick)
system.cpu.icache.overallMshrMissLatency::total    373275998                       # number of overall MSHR miss ticks (Tick)
system.cpu.icache.demandMshrMissRate::cpu.inst     0.001268                       # mshr miss ratio for demand accesses (Ratio)
system.cpu.icache.demandMshrMissRate::total     0.001268                       # mshr miss ratio for demand accesses (Ratio)
system.cpu.icache.overallMshrMissRate::cpu.inst     0.001268                       # mshr miss ratio for overall accesses (Ratio)
system.cpu.icache.overallMshrMissRate::total     0.001268                       # mshr miss ratio for overall accesses (Ratio)
system.cpu.icache.demandAvgMshrMissLatency::cpu.inst 27438.694355                       # average overall mshr miss latency ((Cycle/Count))
system.cpu.icache.demandAvgMshrMissLatency::total 27438.694355                       # average overall mshr miss latency ((Cycle/Count))
system.cpu.icache.overallAvgMshrMissLatency::cpu.inst 27438.694355                       # average overall mshr miss latency ((Cycle/Count))
system.cpu.icache.overallAvgMshrMissLatency::total 27438.694355                       # average overall mshr miss latency ((Cycle/Count))
system.cpu.icache.replacements                  13103                       # number of replacements (Count)
system.cpu.icache.ReadReq.hits::cpu.inst     10715509                       # number of ReadReq hits (Count)
system.cpu.icache.ReadReq.hits::total        10715509                       # number of ReadReq hits (Count)
system.cpu.icache.ReadReq.misses::cpu.inst        14470                       # number of ReadReq misses (Count)
system.cpu.icache.ReadReq.misses::total         14470                       # number of ReadReq misses (Count)
system.cpu.icache.ReadReq.missLatency::cpu.inst    414153497                       # number of ReadReq miss ticks (Tick)
system.cpu.icache.ReadReq.missLatency::total    414153497                       # number of ReadReq miss ticks (Tick)
system.cpu.icache.ReadReq.accesses::cpu.inst     10729979                       # number of ReadReq accesses(hits+misses) (Count)
system.cpu.icache.ReadReq.accesses::total     10729979                       # number of ReadReq accesses(hits+misses) (Count)
system.cpu.icache.ReadReq.missRate::cpu.inst     0.001349                       # miss rate for ReadReq accesses (Ratio)
system.cpu.icache.ReadReq.missRate::total     0.001349                       # miss rate for ReadReq accesses (Ratio)
system.cpu.icache.ReadReq.avgMissLatency::cpu.inst 28621.527091                       # average ReadReq miss latency ((Tick/Count))
system.cpu.icache.ReadReq.avgMissLatency::total 28621.527091                       # average ReadReq miss latency ((Tick/Count))
system.cpu.icache.ReadReq.mshrHits::cpu.inst          866                       # number of ReadReq MSHR hits (Count)
system.cpu.icache.ReadReq.mshrHits::total          866                       # number of ReadReq MSHR hits (Count)
system.cpu.icache.ReadReq.mshrMisses::cpu.inst        13604                       # number of ReadReq MSHR misses (Count)
system.cpu.icache.ReadReq.mshrMisses::total        13604                       # number of ReadReq MSHR misses (Count)
system.cpu.icache.ReadReq.mshrMissLatency::cpu.inst    373275998                       # number of ReadReq MSHR miss ticks (Tick)
system.cpu.icache.ReadReq.mshrMissLatency::total    373275998                       # number of ReadReq MSHR miss ticks (Tick)
system.cpu.icache.ReadReq.mshrMissRate::cpu.inst     0.001268                       # mshr miss rate for ReadReq accesses (Ratio)
system.cpu.icache.ReadReq.mshrMissRate::total     0.001268                       # mshr miss rate for ReadReq accesses (Ratio)
system.cpu.icache.ReadReq.avgMshrMissLatency::cpu.inst 27438.694355                       # average ReadReq mshr miss latency ((Tick/Count))
system.cpu.icache.ReadReq.avgMshrMissLatency::total 27438.694355                       # average ReadReq mshr miss latency ((Tick/Count))
system.cpu.icache.power_state.pwrStateResidencyTicks::UNDEFINED  15624633500                       # Cumulative time (in ticks) in various power states (Tick)
system.cpu.icache.tags.tagsInUse           493.127928                       # Average ticks per tags in use ((Tick/Count))
system.cpu.icache.tags.totalRefs             10729112                       # Total number of references to valid blocks. (Count)
system.cpu.icache.tags.sampledRefs              13603                       # Sample count of references to valid blocks. (Count)
system.cpu.icache.tags.avgRefs             788.731309                       # Average number of references to valid blocks. ((Count/Count))
system.cpu.icache.tags.warmupTick               77000                       # The tick when the warmup percentage was hit. (Tick)
system.cpu.icache.tags.occupancies::cpu.inst   493.127928                       # Average occupied blocks per tick, per requestor ((Count/Tick))
system.cpu.icache.tags.avgOccs::cpu.inst     0.963140                       # Average percentage of cache occupancy ((Ratio/Tick))
system.cpu.icache.tags.avgOccs::total        0.963140                       # Average percentage of cache occupancy ((Ratio/Tick))
system.cpu.icache.tags.occupanciesTaskId::1024          500                       # Occupied blocks per task id (Count)
system.cpu.icache.tags.ageTaskId_1024::0           92                       # Occupied blocks per task id, per block age (Count)
system.cpu.icache.tags.ageTaskId_1024::1            3                       # Occupied blocks per task id, per block age (Count)
system.cpu.icache.tags.ageTaskId_1024::2            1                       # Occupied blocks per task id, per block age (Count)
system.cpu.icache.tags.ageTaskId_1024::3          194                       # Occupied blocks per task id, per block age (Count)
system.cpu.icache.tags.ageTaskId_1024::4          210                       # Occupied blocks per task id, per block age (Count)
system.cpu.icache.tags.ratioOccsTaskId::1024     0.976562                       # Ratio of occupied blocks and all blocks, per task id (Ratio)
system.cpu.icache.tags.tagAccesses           21473561                       # Number of tag accesses (Count)
system.cpu.icache.tags.dataAccesses          21473561                       # Number of data accesses (Count)
system.cpu.icache.tags.power_state.pwrStateResidencyTicks::UNDEFINED  15624633500                       # Cumulative time (in ticks) in various power states (Tick)
system.cpu.iew.idleCycles                           0                       # Number of cycles IEW is idle (Cycle)
system.cpu.iew.squashCycles                    117880                       # Number of cycles IEW is squashing (Cycle)
system.cpu.iew.blockCycles                     973392                       # Number of cycles IEW is blocking (Cycle)
[...]
system.mem_ctrls.dram.bwRead::cpu.inst       55719195                       # Total read bandwidth from this memory ((Byte/Second))
system.mem_ctrls.dram.bwRead::cpu.data      116079267                       # Total read bandwidth from this memory ((Byte/Second))
system.mem_ctrls.dram.bwRead::total         171798462                       # Total read bandwidth from this memory ((Byte/Second))
system.mem_ctrls.dram.bwInstRead::cpu.inst     55719195                       # Instruction read bandwidth from this memory ((Byte/Second))
system.mem_ctrls.dram.bwInstRead::total      55719195                       # Instruction read bandwidth from this memory ((Byte/Second))
system.mem_ctrls.dram.bwWrite::writebacks     62539195                       # Write bandwidth from this memory ((Byte/Second))
system.mem_ctrls.dram.bwWrite::total         62539195                       # Write bandwidth from this memory ((Byte/Second))
system.mem_ctrls.dram.bwTotal::writebacks     62539195                       # Total bandwidth to/from this memory ((Byte/Second))
system.mem_ctrls.dram.bwTotal::cpu.inst      55719195                       # Total bandwidth to/from this memory ((Byte/Second))
system.mem_ctrls.dram.bwTotal::cpu.data     116079267                       # Total bandwidth to/from this memory ((Byte/Second))
system.mem_ctrls.dram.bwTotal::total        234337657                       # Total bandwidth to/from this memory ((Byte/Second))
system.mem_ctrls.dram.readBursts                30058                       # Number of DRAM read bursts (Count)
system.mem_ctrls.dram.writeBursts               16982                       # Number of DRAM write bursts (Count)
system.mem_ctrls.dram.perBankRdBursts::0         1812                       # Per bank write bursts (Count)
system.mem_ctrls.dram.perBankRdBursts::1         1855                       # Per bank write bursts (Count)
system.mem_ctrls.dram.perBankRdBursts::2         1918                       # Per bank write bursts (Count)
system.mem_ctrls.dram.perBankRdBursts::3         1854                       # Per bank write bursts (Count)
system.mem_ctrls.dram.perBankRdBursts::4         1841                       # Per bank write bursts (Count)
system.mem_ctrls.dram.perBankRdBursts::5         2082                       # Per bank write bursts (Count)
system.mem_ctrls.dram.perBankRdBursts::6         2354                       # Per bank write bursts (Count)
system.mem_ctrls.dram.perBankRdBursts::7         2057                       # Per bank write bursts (Count)
system.mem_ctrls.dram.perBankRdBursts::8         1780                       # Per bank write bursts (Count)
system.mem_ctrls.dram.perBankRdBursts::9         1790                       # Per bank write bursts (Count)
system.mem_ctrls.dram.perBankRdBursts::10         1745                       # Per bank write bursts (Count)
system.mem_ctrls.dram.perBankRdBursts::11         1936                       # Per bank write bursts (Count)
system.mem_ctrls.dram.perBankRdBursts::12         1758                       # Per bank write bursts (Count)
system.mem_ctrls.dram.perBankRdBursts::13         1757                       # Per bank write bursts (Count)
system.mem_ctrls.dram.perBankRdBursts::14         1774                       # Per bank write bursts (Count)
system.mem_ctrls.dram.perBankRdBursts::15         1745                       # Per bank write bursts (Count)
system.mem_ctrls.dram.perBankWrBursts::0          987                       # Per bank write bursts (Count)
system.mem_ctrls.dram.perBankWrBursts::1         1009                       # Per bank write bursts (Count)
system.mem_ctrls.dram.perBankWrBursts::2         1083                       # Per bank write bursts (Count)
system.mem_ctrls.dram.perBankWrBursts::3         1077                       # Per bank write bursts (Count)
system.mem_ctrls.dram.perBankWrBursts::4         1034                       # Per bank write bursts (Count)
system.mem_ctrls.dram.perBankWrBursts::5         1130                       # Per bank write bursts (Count)
system.mem_ctrls.dram.perBankWrBursts::6         1285                       # Per bank write bursts (Count)
system.mem_ctrls.dram.perBankWrBursts::7         1050                       # Per bank write bursts (Count)
system.mem_ctrls.dram.perBankWrBursts::8          973                       # Per bank write bursts (Count)
system.mem_ctrls.dram.perBankWrBursts::9         1071                       # Per bank write bursts (Count)
system.mem_ctrls.dram.perBankWrBursts::10          937                       # Per bank write bursts (Count)
system.mem_ctrls.dram.perBankWrBursts::11         1206                       # Per bank write bursts (Count)
system.mem_ctrls.dram.perBankWrBursts::12          960                       # Per bank write bursts (Count)
system.mem_ctrls.dram.perBankWrBursts::13         1189                       # Per bank write bursts (Count)
system.mem_ctrls.dram.perBankWrBursts::14          995                       # Per bank write bursts (Count)
system.mem_ctrls.dram.perBankWrBursts::15          996                       # Per bank write bursts (Count)
system.mem_ctrls.dram.totQLat               676403750                       # Total ticks spent queuing (Tick)
system.mem_ctrls.dram.totBusLat             150290000                       # Total ticks spent in databus transfers (Tick)
system.mem_ctrls.dram.totMemAccLat         1239991250                       # Total ticks spent from burst creation until serviced by the DRAM (Tick)
system.mem_ctrls.dram.avgQLat                22503.29                       # Average queueing delay per DRAM burst ((Tick/Count))
system.mem_ctrls.dram.avgBusLat               5000.00                       # Average bus latency per DRAM burst ((Tick/Count))
system.mem_ctrls.dram.avgMemAccLat           41253.29                       # Average memory access latency per DRAM burst ((Tick/Count))
system.mem_ctrls.dram.readRowHits               23054                       # Number of row buffer hits during reads (Count)
system.mem_ctrls.dram.writeRowHits              14730                       # Number of row buffer hits during writes (Count)
system.mem_ctrls.dram.readRowHitRate            76.70                       # Row buffer hit rate for reads (Ratio)
system.mem_ctrls.dram.writeRowHitRate           86.74                       # Row buffer hit rate for writes (Ratio)
system.mem_ctrls.dram.bytesPerActivate::samples         9242                       # Bytes accessed per row activation (Byte)
system.mem_ctrls.dram.bytesPerActivate::mean   325.546851                       # Bytes accessed per row activation (Byte)
system.mem_ctrls.dram.bytesPerActivate::gmean   232.284493                       # Bytes accessed per row activation (Byte)
system.mem_ctrls.dram.bytesPerActivate::stdev   280.669652                       # Bytes accessed per row activation (Byte)
system.mem_ctrls.dram.bytesPerActivate::0-127         1843     19.94%     19.94% # Bytes accessed per row activation (Byte)
system.mem_ctrls.dram.bytesPerActivate::128-255         1672     18.09%     38.03% # Bytes accessed per row activation (Byte)
system.mem_ctrls.dram.bytesPerActivate::256-383         4137     44.76%     82.80% # Bytes accessed per row activation (Byte)
system.mem_ctrls.dram.bytesPerActivate::384-511          209      2.26%     85.06% # Bytes accessed per row activation (Byte)
system.mem_ctrls.dram.bytesPerActivate::512-639          109      1.18%     86.24% # Bytes accessed per row activation (Byte)
system.mem_ctrls.dram.bytesPerActivate::640-767           95      1.03%     87.26% # Bytes accessed per row activation (Byte)
system.mem_ctrls.dram.bytesPerActivate::768-895           99      1.07%     88.34% # Bytes accessed per row activation (Byte)
system.mem_ctrls.dram.bytesPerActivate::896-1023          202      2.19%     90.52% # Bytes accessed per row activation (Byte)
system.mem_ctrls.dram.bytesPerActivate::1024-1151          876      9.48%    100.00% # Bytes accessed per row activation (Byte)
system.mem_ctrls.dram.bytesPerActivate::total         9242                       # Bytes accessed per row activation (Byte)
system.mem_ctrls.dram.bytesRead               1923712                       # Total bytes read (Byte)
system.mem_ctrls.dram.bytesWritten            1086848                       # Total bytes written (Byte)
system.mem_ctrls.dram.avgRdBW              123.120456                       # Average DRAM read bandwidth in MiBytes/s ((Byte/Second))
system.mem_ctrls.dram.avgWrBW               69.559904                       # Average DRAM write bandwidth in MiBytes/s ((Byte/Second))
system.mem_ctrls.dram.peakBW                 12800.00                       # Theoretical peak bandwidth in MiByte/s ((Byte/Second))
system.mem_ctrls.dram.busUtil                    1.51                       # Data bus utilization in percentage (Ratio)
system.mem_ctrls.dram.busUtilRead                0.96                       # Data bus utilization in percentage for reads (Ratio)
system.mem_ctrls.dram.busUtilWrite               0.54                       # Data bus utilization in percentage for writes (Ratio)
system.mem_ctrls.dram.pageHitRate               80.32                       # Row buffer hit rate, read and write combined (Ratio)
system.mem_ctrls.dram.power_state.pwrStateResidencyTicks::UNDEFINED  15624633500                       # Cumulative time (in ticks) in various power states (Tick)
system.mem_ctrls.dram.rank0.actEnergy        34579020                       # Energy for activate commands per rank (pJ) (Joule)
system.mem_ctrls.dram.rank0.preEnergy        18356415                       # Energy for precharge commands per rank (pJ) (Joule)
system.mem_ctrls.dram.rank0.readEnergy      112612080                       # Energy for read commands per rank (pJ) (Joule)
system.mem_ctrls.dram.rank0.writeEnergy      45179100                       # Energy for write commands per rank (pJ) (Joule)
system.mem_ctrls.dram.rank0.refreshEnergy 1232967840.000000                       # Energy for refresh commands per rank (pJ) (Joule)
system.mem_ctrls.dram.rank0.actBackEnergy   3416226600                       # Energy for active background per rank (pJ) (Joule)
system.mem_ctrls.dram.rank0.preBackEnergy   3123036960                       # Energy for precharge background per rank (pJ) (Joule)
system.mem_ctrls.dram.rank0.actPowerDownEnergy            0                       # Energy for active power-down per rank (pJ) (Joule)
system.mem_ctrls.dram.rank0.prePowerDownEnergy            0                       # Energy for precharge power-down per rank (pJ) (Joule)
system.mem_ctrls.dram.rank0.selfRefreshEnergy            0                       # Energy for self refresh per rank (pJ) (Joule)
system.mem_ctrls.dram.rank0.totalEnergy    7982958015                       # Total energy per rank (pJ) (Joule)
system.mem_ctrls.dram.rank0.averagePower   510.921297                       # Core power per rank (mW) (Watt)
system.mem_ctrls.dram.rank0.totalIdleTime            0                       # Total Idle time Per DRAM Rank (Tick)
system.mem_ctrls.dram.rank0.pwrStateTime::IDLE   8079474250                       # Time in different power states (Tick)
system.mem_ctrls.dram.rank0.pwrStateTime::REF    521560000                       # Time in different power states (Tick)
system.mem_ctrls.dram.rank0.pwrStateTime::SREF            0                       # Time in different power states (Tick)
system.mem_ctrls.dram.rank0.pwrStateTime::PRE_PDN            0                       # Time in different power states (Tick)
system.mem_ctrls.dram.rank0.pwrStateTime::ACT   7023599250                       # Time in different power states (Tick)
system.mem_ctrls.dram.rank0.pwrStateTime::ACT_PDN            0                       # Time in different power states (Tick)
system.mem_ctrls.dram.rank1.actEnergy        31501680                       # Energy for activate commands per rank (pJ) (Joule)
system.mem_ctrls.dram.rank1.preEnergy        16716975                       # Energy for precharge commands per rank (pJ) (Joule)
system.mem_ctrls.dram.rank1.readEnergy      101994900                       # Energy for read commands per rank (pJ) (Joule)
system.mem_ctrls.dram.rank1.writeEnergy      43466940                       # Energy for write commands per rank (pJ) (Joule)
system.mem_ctrls.dram.rank1.refreshEnergy 1232967840.000000                       # Energy for refresh commands per rank (pJ) (Joule)
system.mem_ctrls.dram.rank1.actBackEnergy   3333575460                       # Energy for active background per rank (pJ) (Joule)
system.mem_ctrls.dram.rank1.preBackEnergy   3192637920                       # Energy for precharge background per rank (pJ) (Joule)
system.mem_ctrls.dram.rank1.actPowerDownEnergy            0                       # Energy for active power-down per rank (pJ) (Joule)
system.mem_ctrls.dram.rank1.prePowerDownEnergy            0                       # Energy for precharge power-down per rank (pJ) (Joule)
system.mem_ctrls.dram.rank1.selfRefreshEnergy            0                       # Energy for self refresh per rank (pJ) (Joule)
system.mem_ctrls.dram.rank1.totalEnergy    7952861715                       # Total energy per rank (pJ) (Joule)
system.mem_ctrls.dram.rank1.averagePower   508.995089                       # Core power per rank (mW) (Watt)
system.mem_ctrls.dram.rank1.totalIdleTime            0                       # Total Idle time Per DRAM Rank (Tick)
system.mem_ctrls.dram.rank1.pwrStateTime::IDLE   8260350250                       # Time in different power states (Tick)
system.mem_ctrls.dram.rank1.pwrStateTime::REF    521560000                       # Time in different power states (Tick)
system.mem_ctrls.dram.rank1.pwrStateTime::SREF            0                       # Time in different power states (Tick)
system.mem_ctrls.dram.rank1.pwrStateTime::PRE_PDN            0                       # Time in different power states (Tick)
system.mem_ctrls.dram.rank1.pwrStateTime::ACT   6842723250                       # Time in different power states (Tick)
system.mem_ctrls.dram.rank1.pwrStateTime::ACT_PDN            0                       # Time in different power states (Tick)
system.mem_ctrls.power_state.pwrStateResidencyTicks::UNDEFINED  15624633500                       # Cumulative time (in ticks) in various power states (Tick)
system.membus.transDist::ReadResp               28974                       # Transaction distribution (Count)
system.membus.transDist::WritebackDirty         15268                       # Transaction distribution (Count)
system.membus.transDist::WritebackClean         13103                       # Transaction distribution (Count)
system.membus.transDist::CleanEvict             13101                       # Transaction distribution (Count)
system.membus.transDist::ReadExReq              12968                       # Transaction distribution (Count)
system.membus.transDist::ReadExResp             12968                       # Transaction distribution (Count)
system.membus.transDist::ReadCleanReq           13604                       # Transaction distribution (Count)
system.membus.transDist::ReadSharedReq          15371                       # Transaction distribution (Count)
system.membus.transDist::InvalidateReq           2078                       # Transaction distribution (Count)
system.membus.pktCount_system.cpu.icache.mem_side_port::system.mem_ctrls.port        40310                       # Packet count per connected requestor and responder (Count)
system.membus.pktCount_system.cpu.dcache.mem_side_port::system.mem_ctrls.port        87125                       # Packet count per connected requestor and responder (Count)
system.membus.pktCount::total                  127435                       # Packet count per connected requestor and responder (Count)
system.membus.pktSize_system.cpu.icache.mem_side_port::system.mem_ctrls.port      1709184                       # Cumulative packet size per connected requestor and responder (Byte)
system.membus.pktSize_system.cpu.dcache.mem_side_port::system.mem_ctrls.port      2790848                       # Cumulative packet size per connected requestor and responder (Byte)
system.membus.pktSize::total                  4500032                       # Cumulative packet size per connected requestor and responder (Byte)
system.membus.snoops                                0                       # Total snoops (Count)
system.membus.snoopTraffic                          0                       # Total snoop traffic (Byte)
system.membus.snoopFanout::samples              44021                       # Request fanout histogram (Count)
system.membus.snoopFanout::mean              0.000045                       # Request fanout histogram (Count)
system.membus.snoopFanout::stdev             0.006740                       # Request fanout histogram (Count)
system.membus.snoopFanout::underflows               0      0.00%      0.00% # Request fanout histogram (Count)
system.membus.snoopFanout::0                    44019    100.00%    100.00% # Request fanout histogram (Count)
system.membus.snoopFanout::1                        2      0.00%    100.00% # Request fanout histogram (Count)
system.membus.snoopFanout::2                        0      0.00%    100.00% # Request fanout histogram (Count)
system.membus.snoopFanout::overflows                0      0.00%    100.00% # Request fanout histogram (Count)
system.membus.snoopFanout::min_value                0                       # Request fanout histogram (Count)
system.membus.snoopFanout::max_value                1                       # Request fanout histogram (Count)
system.membus.snoopFanout::total                44021                       # Request fanout histogram (Count)
system.membus.power_state.pwrStateResidencyTicks::UNDEFINED  15624633500                       # Cumulative time (in ticks) in various power states (Tick)
system.membus.reqLayer0.occupancy           205174750                       # Layer occupancy (ticks) (Tick)
system.membus.reqLayer0.utilization               0.0                       # Layer utilization (Ratio)
system.membus.respLayer1.occupancy           68607500                       # Layer occupancy (ticks) (Tick)
system.membus.respLayer1.utilization              0.0                       # Layer utilization (Ratio)
system.membus.respLayer2.occupancy          148160750                       # Layer occupancy (ticks) (Tick)
system.membus.respLayer2.utilization              0.0                       # Layer utilization (Ratio)
system.membus.snoop_filter.totRequests          85498                       # Total number of requests made to the snoop filter. (Count)
system.membus.snoop_filter.hitSingleRequests        41478                       # Number of requests hitting in the snoop filter with a single holder of the requested data. (Count)
system.membus.snoop_filter.hitMultiRequests            1                       # Number of requests hitting in the snoop filter with multiple (>1) holders of the requested data. (Count)
system.membus.snoop_filter.totSnoops                0                       # Total number of snoops made to the snoop filter. (Count)
system.membus.snoop_filter.hitSingleSnoops            0                       # Number of snoops hitting in the snoop filter with a single holder of the requested data. (Count)
system.membus.snoop_filter.hitMultiSnoops            0                       # Number of snoops hitting in the snoop filter with multiple (>1) holders of the requested data. (Count)
system.voltage_domain.voltage                       1                       # Voltage in Volts (Volt)
system.workload.inst.arm                            0                       # number of arm instructions executed (Count)
system.workload.inst.quiesce                        0                       # number of quiesce instructions executed (Count)

---------- End Simulation Statistics   ----------
