
---------- Begin Simulation Statistics ----------
simSeconds                                   0.061451                       # Number of seconds simulated (Second)
simTicks                                  61451027500                       # Number of ticks simulated (Tick)
finalTick                                 61451027500                       # Number of ticks from beginning of simulation (restored from checkpoints and never reset) (Tick)
simFreq                                  1000000000000                       # The number of ticks per simulated second ((Tick/Second))
hostSeconds                                     45.53                       # Real time elapsed on the host (Second)
hostTickRate                               1349772954                       # The number of ticks simulated per host second (ticks/s) ((Tick/Second))
hostMemory                                     670416                       # Number of bytes of host memory used (Byte)
simInsts                                     37297056                       # Number of instructions simulated (Count)
simOps                                       38450592                       # Number of ops (including micro ops) simulated (Count)
hostInstRate                                   819230                       # Simulator instruction rate (inst/s) ((Count/Second))
hostOpRate                                     844567                       # Simulator op (including micro ops) rate (op/s) ((Count/Second))
system.clk_domain.clock                          1000                       # Clock period in ticks (Tick)
system.cpu.numCycles                        122902055                       # Number of cpu cycles simulated (Cycle)
system.cpu.numWorkItemsStarted                      0                       # Number of work items this cpu started (Count)
system.cpu.numWorkItemsCompleted                    0                       # Number of work items this cpu completed (Count)
system.cpu.numInsts                          37297056                       # Number of instructions committed (Count)
system.cpu.numOps                            38450592                       # Number of ops (including micro ops) committed (Count)
system.cpu.numDiscardedOps                     179505                       # Number of ops (including micro ops) which were discarded before commit (Count)
system.cpu.numFetchSuspends                         0                       # Number of times Execute suspended instruction fetching (Count)
system.cpu.cpi                               3.295221                       # CPI: cycles per instruction ((Cycle/Count))
system.cpu.ipc                               0.303470                       # IPC: instructions per cycle ((Count/Cycle))
system.cpu.committedInstType_0::No_OpClass        13508      0.04%      0.04% # Class of committed instruction (Count)
system.cpu.committedInstType_0::IntAlu       22277121     57.94%     57.97% # Class of committed instruction (Count)
system.cpu.committedInstType_0::IntMult         43827      0.11%     58.09% # Class of committed instruction (Count)
system.cpu.committedInstType_0::IntDiv          16515      0.04%     58.13% # Class of committed instruction (Count)
system.cpu.committedInstType_0::FloatAdd      1155641      3.01%     61.13% # Class of committed instruction (Count)
system.cpu.committedInstType_0::FloatCmp       569268      1.48%     62.62% # Class of committed instruction (Count)
system.cpu.committedInstType_0::FloatCvt            0      0.00%     62.62% # Class of committed instruction (Count)
system.cpu.committedInstType_0::FloatMult            0      0.00%     62.62% # Class of committed instruction (Count)
system.cpu.committedInstType_0::FloatMultAcc            0      0.00%     62.62% # Class of committed instruction (Count)
system.cpu.committedInstType_0::FloatDiv            0      0.00%     62.62% # Class of committed instruction (Count)
system.cpu.committedInstType_0::FloatMisc        24242      0.06%     62.68% # Class of committed instruction (Count)
system.cpu.committedInstType_0::FloatSqrt            0      0.00%     62.68% # Class of committed instruction (Count)
system.cpu.committedInstType_0::SimdAdd         31905      0.08%     62.76% # Class of committed instruction (Count)
system.cpu.committedInstType_0::SimdAddAcc            0      0.00%     62.76% # Class of committed instruction (Count)
system.cpu.committedInstType_0::SimdAlu         58862      0.15%     62.91% # Class of committed instruction (Count)
system.cpu.committedInstType_0::SimdCmp         53936      0.14%     63.05% # Class of committed instruction (Count)
system.cpu.committedInstType_0::SimdCvt             0      0.00%     63.05% # Class of committed instruction (Count)
system.cpu.committedInstType_0::SimdMisc        36065      0.09%     63.15% # Class of committed instruction (Count)
system.cpu.committedInstType_0::SimdMult            0      0.00%     63.15% # Class of committed instruction (Count)
system.cpu.committedInstType_0::SimdMultAcc            0      0.00%     63.15% # Class of committed instruction (Count)
system.cpu.committedInstType_0::SimdShift            0      0.00%     63.15% # Class of committed instruction (Count)
system.cpu.committedInstType_0::SimdShiftAcc            0      0.00%     63.15% # Class of committed instruction (Count)
system.cpu.committedInstType_0::SimdDiv             0      0.00%     63.15% # Class of committed instruction (Count)
system.cpu.committedInstType_0::SimdSqrt            0      0.00%     63.15% # Class of committed instruction (Count)
system.cpu.committedInstType_0::SimdFloatAdd            0      0.00%     63.15% # Class of committed instruction (Count)
system.cpu.committedInstType_0::SimdFloatAlu            0      0.00%     63.15% # Class of committed instruction (Count)
system.cpu.committedInstType_0::SimdFloatCmp            0      0.00%     63.15% # Class of committed instruction (Count)
system.cpu.committedInstType_0::SimdFloatCvt            0      0.00%     63.15% # Class of committed instruction (Count)
system.cpu.committedInstType_0::SimdFloatDiv            0      0.00%     63.15% # Class of committed instruction (Count)
system.cpu.committedInstType_0::SimdFloatMisc            0      0.00%     63.15% # Class of committed instruction (Count)
system.cpu.committedInstType_0::SimdFloatMult            0      0.00%     63.15% # Class of committed instruction (Count)
system.cpu.committedInstType_0::SimdFloatMultAcc            0      0.00%     63.15% # Class of committed instruction (Count)
system.cpu.committedInstType_0::SimdFloatSqrt            0      0.00%     63.15% # Class of committed instruction (Count)
system.cpu.committedInstType_0::SimdReduceAdd            0      0.00%     63.15% # Class of committed instruction (Count)
system.cpu.committedInstType_0::SimdReduceAlu            0      0.00%     63.15% # Class of committed instruction (Count)
system.cpu.committedInstType_0::SimdReduceCmp            0      0.00%     63.15% # Class of committed instruction (Count)
system.cpu.committedInstType_0::SimdFloatReduceAdd            0      0.00%     63.15% # Class of committed instruction (Count)
system.cpu.committedInstType_0::SimdFloatReduceCmp            0      0.00%     63.15% # Class of committed instruction (Count)
system.cpu.committedInstType_0::SimdAes             0      0.00%     63.15% # Class of committed instruction (Count)
system.cpu.committedInstType_0::SimdAesMix            0      0.00%     63.15% # Class of committed instruction (Count)
system.cpu.committedInstType_0::SimdSha1Hash            0      0.00%     63.15% # Class of committed instruction (Count)
system.cpu.committedInstType_0::SimdSha1Hash2            0      0.00%     63.15% # Class of committed instruction (Count)
system.cpu.committedInstType_0::SimdSha256Hash            0      0.00%     63.15% # Class of committed instruction (Count)
system.cpu.committedInstType_0::SimdSha256Hash2            0      0.00%     63.15% # Class of committed instruction (Count)
system.cpu.committedInstType_0::SimdShaSigma2            0      0.00%     63.15% # Class of committed instruction (Count)
system.cpu.committedInstType_0::SimdShaSigma3            0      0.00%     63.15% # Class of committed instruction (Count)
system.cpu.committedInstType_0::SimdPredAlu            0      0.00%     63.15% # Class of committed instruction (Count)
system.cpu.committedInstType_0::MemRead      11863771     30.85%     94.00% # Class of committed instruction (Count)
system.cpu.committedInstType_0::MemWrite      2305931      6.00%    100.00% # Class of committed instruction (Count)
system.cpu.committedInstType_0::FloatMemRead            0      0.00%    100.00% # Class of committed instruction (Count)
system.cpu.committedInstType_0::FloatMemWrite            0      0.00%    100.00% # Class of committed instruction (Count)
system.cpu.committedInstType_0::IprAccess            0      0.00%    100.00% # Class of committed instruction (Count)
system.cpu.committedInstType_0::InstPrefetch            0      0.00%    100.00% # Class of committed instruction (Count)
system.cpu.committedInstType_0::total        38450592                       # Class of committed instruction (Count)
system.cpu.branchPred.lookups                 3425341                       # Number of BP lookups (Count)
system.cpu.branchPred.condPredicted           2995654                       # Number of conditional branches predicted (Count)
system.cpu.branchPred.condIncorrect             73743                       # Number of conditional branches incorrect (Count)
system.cpu.branchPred.BTBLookups              2435542                       # Number of BTB lookups (Count)
system.cpu.branchPred.BTBHits                 2433001                       # Number of BTB hits (Count)
system.cpu.branchPred.BTBHitRatio            0.998957                       # BTB Hit Ratio (Ratio)
system.cpu.branchPred.RASUsed                  136126                       # Number of times the RAS was used to get a target. (Count)
system.cpu.branchPred.RASIncorrect                 20                       # Number of incorrect RAS predictions. (Count)
system.cpu.branchPred.indirectLookups           35616                       # Number of indirect predictor lookups. (Count)
system.cpu.branchPred.indirectHits              34933                       # Number of indirect target hits. (Count)
system.cpu.branchPred.indirectMisses              683                       # Number of indirect misses. (Count)
system.cpu.branchPred.indirectMispredicted          241                       # Number of mispredicted indirect branches. (Count)
system.cpu.dcache.demandHits::cpu.data       12195991                       # number of demand (read+write) hits (Count)
system.cpu.dcache.demandHits::total          12195991                       # number of demand (read+write) hits (Count)
system.cpu.dcache.overallHits::cpu.data      12211152                       # number of overall hits (Count)
system.cpu.dcache.overallHits::total         12211152                       # number of overall hits (Count)
system.cpu.dcache.demandMisses::cpu.data       835763                       # number of demand (read+write) misses (Count)
system.cpu.dcache.demandMisses::total          835763                       # number of demand (read+write) misses (Count)
system.cpu.dcache.overallMisses::cpu.data       837790                       # number of overall misses (Count)
system.cpu.dcache.overallMisses::total         837790                       # number of overall misses (Count)
system.cpu.dcache.demandMissLatency::cpu.data  42121177749                       # number of demand (read+write) miss ticks (Tick)
system.cpu.dcache.demandMissLatency::total  42121177749                       # number of demand (read+write) miss ticks (Tick)
system.cpu.dcache.overallMissLatency::cpu.data  42121177749                       # number of overall miss ticks (Tick)
system.cpu.dcache.overallMissLatency::total  42121177749                       # number of overall miss ticks (Tick)
system.cpu.dcache.demandAccesses::cpu.data     13031754                       # number of demand (read+write) accesses (Count)
system.cpu.dcache.demandAccesses::total      13031754                       # number of demand (read+write) accesses (Count)
system.cpu.dcache.overallAccesses::cpu.data     13048942                       # number of overall (read+write) accesses (Count)
system.cpu.dcache.overallAccesses::total     13048942                       # number of overall (read+write) accesses (Count)
system.cpu.dcache.demandMissRate::cpu.data     0.064133                       # miss rate for demand accesses (Ratio)
system.cpu.dcache.demandMissRate::total      0.064133                       # miss rate for demand accesses (Ratio)
system.cpu.dcache.overallMissRate::cpu.data     0.064204                       # miss rate for overall accesses (Ratio)
system.cpu.dcache.overallMissRate::total     0.064204                       # miss rate for overall accesses (Ratio)
system.cpu.dcache.demandAvgMissLatency::cpu.data 50398.471515                       # average overall miss latency ((Cycle/Count))
system.cpu.dcache.demandAvgMissLatency::total 50398.471515                       # average overall miss latency ((Cycle/Count))
system.cpu.dcache.overallAvgMissLatency::cpu.data 50276.534393                       # average overall miss latency ((Cycle/Count))
system.cpu.dcache.overallAvgMissLatency::total 50276.534393                       # average overall miss latency ((Cycle/Count))
system.cpu.dcache.blockedCycles::no_mshrs            0                       # number of cycles access was blocked (Cycle)
system.cpu.dcache.blockedCycles::no_targets            0                       # number of cycles access was blocked (Cycle)
system.cpu.dcache.blockedCauses::no_mshrs            0                       # number of times access was blocked (Count)
system.cpu.dcache.blockedCauses::no_targets            0                       # number of times access was blocked (Count)
system.cpu.dcache.avgBlocked::no_mshrs            nan                       # average number of cycles each access was blocked ((Cycle/Count))
system.cpu.dcache.avgBlocked::no_targets          nan                       # average number of cycles each access was blocked ((Cycle/Count))
system.cpu.dcache.writebacks::writebacks        78340                       # number of writebacks (Count)
system.cpu.dcache.writebacks::total             78340                       # number of writebacks (Count)
system.cpu.dcache.demandMshrHits::cpu.data        42912                       # number of demand (read+write) MSHR hits (Count)
system.cpu.dcache.demandMshrHits::total         42912                       # number of demand (read+write) MSHR hits (Count)
system.cpu.dcache.overallMshrHits::cpu.data        42912                       # number of overall MSHR hits (Count)
system.cpu.dcache.overallMshrHits::total        42912                       # number of overall MSHR hits (Count)
system.cpu.dcache.demandMshrMisses::cpu.data       792851                       # number of demand (read+write) MSHR misses (Count)
system.cpu.dcache.demandMshrMisses::total       792851                       # number of demand (read+write) MSHR misses (Count)
system.cpu.dcache.overallMshrMisses::cpu.data       794878                       # number of overall MSHR misses (Count)
system.cpu.dcache.overallMshrMisses::total       794878                       # number of overall MSHR misses (Count)
system.cpu.dcache.demandMshrMissLatency::cpu.data  39789064749                       # number of demand (read+write) MSHR miss ticks (Tick)
system.cpu.dcache.demandMshrMissLatency::total  39789064749                       # number of demand (read+write) MSHR miss ticks (Tick)
system.cpu.dcache.overallMshrMissLatency::cpu.data  39897241749                       # number of overall MSHR miss ticks (Tick)
system.cpu.dcache.overallMshrMissLatency::total  39897241749                       # number of overall MSHR miss ticks (Tick)
system.cpu.dcache.demandMshrMissRate::cpu.data     0.060840                       # mshr miss ratio for demand accesses (Ratio)
system.cpu.dcache.demandMshrMissRate::total     0.060840                       # mshr miss ratio for demand accesses (Ratio)
system.cpu.dcache.overallMshrMissRate::cpu.data     0.060915                       # mshr miss ratio for overall accesses (Ratio)
system.cpu.dcache.overallMshrMissRate::total     0.060915                       # mshr miss ratio for overall accesses (Ratio)
system.cpu.dcache.demandAvgMshrMissLatency::cpu.data 50184.794809                       # average overall mshr miss latency ((Cycle/Count))
system.cpu.dcache.demandAvgMshrMissLatency::total 50184.794809                       # average overall mshr miss latency ((Cycle/Count))
system.cpu.dcache.overallAvgMshrMissLatency::cpu.data 50192.912307                       # average overall mshr miss latency ((Cycle/Count))
system.cpu.dcache.overallAvgMshrMissLatency::total 50192.912307                       # average overall mshr miss latency ((Cycle/Count))
system.cpu.dcache.replacements                 794849                       # number of replacements (Count)
system.cpu.dcache.LoadLockedReq.hits::cpu.data            3                       # number of LoadLockedReq hits (Count)
system.cpu.dcache.LoadLockedReq.hits::total            3                       # number of LoadLockedReq hits (Count)
system.cpu.dcache.LoadLockedReq.misses::cpu.data            1                       # number of LoadLockedReq misses (Count)
system.cpu.dcache.LoadLockedReq.misses::total            1                       # number of LoadLockedReq misses (Count)
system.cpu.dcache.LoadLockedReq.missLatency::cpu.data        51000                       # number of LoadLockedReq miss ticks (Tick)
system.cpu.dcache.LoadLockedReq.missLatency::total        51000                       # number of LoadLockedReq miss ticks (Tick)
system.cpu.dcache.LoadLockedReq.accesses::cpu.data            4                       # number of LoadLockedReq accesses(hits+misses) (Count)
system.cpu.dcache.LoadLockedReq.accesses::total            4                       # number of LoadLockedReq accesses(hits+misses) (Count)
system.cpu.dcache.LoadLockedReq.missRate::cpu.data     0.250000                       # miss rate for LoadLockedReq accesses (Ratio)
system.cpu.dcache.LoadLockedReq.missRate::total     0.250000                       # miss rate for LoadLockedReq accesses (Ratio)
system.cpu.dcache.LoadLockedReq.avgMissLatency::cpu.data        51000                       # average LoadLockedReq miss latency ((Tick/Count))
system.cpu.dcache.LoadLockedReq.avgMissLatency::total        51000                       # average LoadLockedReq miss latency ((Tick/Count))
system.cpu.dcache.LoadLockedReq.mshrMisses::cpu.data            1                       # number of LoadLockedReq MSHR misses (Count)
system.cpu.dcache.LoadLockedReq.mshrMisses::total            1                       # number of LoadLockedReq MSHR misses (Count)
system.cpu.dcache.LoadLockedReq.mshrMissLatency::cpu.data        50000                       # number of LoadLockedReq MSHR miss ticks (Tick)
system.cpu.dcache.LoadLockedReq.mshrMissLatency::total        50000                       # number of LoadLockedReq MSHR miss ticks (Tick)
system.cpu.dcache.LoadLockedReq.mshrMissRate::cpu.data     0.250000                       # mshr miss rate for LoadLockedReq accesses (Ratio)
system.cpu.dcache.LoadLockedReq.mshrMissRate::total     0.250000                       # mshr miss rate for LoadLockedReq accesses (Ratio)
system.cpu.dcache.LoadLockedReq.avgMshrMissLatency::cpu.data        50000                       # average LoadLockedReq mshr miss latency ((Tick/Count))
system.cpu.dcache.LoadLockedReq.avgMshrMissLatency::total        50000                       # average LoadLockedReq mshr miss latency ((Tick/Count))
system.cpu.dcache.ReadReq.hits::cpu.data      9980179                       # number of ReadReq hits (Count)
system.cpu.dcache.ReadReq.hits::total         9980179                       # number of ReadReq hits (Count)
system.cpu.dcache.ReadReq.misses::cpu.data       745705                       # number of ReadReq misses (Count)
system.cpu.dcache.ReadReq.misses::total        745705                       # number of ReadReq misses (Count)
system.cpu.dcache.ReadReq.missLatency::cpu.data  39916465000                       # number of ReadReq miss ticks (Tick)
system.cpu.dcache.ReadReq.missLatency::total  39916465000                       # number of ReadReq miss ticks (Tick)
system.cpu.dcache.ReadReq.accesses::cpu.data     10725884                       # number of ReadReq accesses(hits+misses) (Count)
system.cpu.dcache.ReadReq.accesses::total     10725884                       # number of ReadReq accesses(hits+misses) (Count)
system.cpu.dcache.ReadReq.missRate::cpu.data     0.069524                       # miss rate for ReadReq accesses (Ratio)
system.cpu.dcache.ReadReq.missRate::total     0.069524                       # miss rate for ReadReq accesses (Ratio)
system.cpu.dcache.ReadReq.avgMissLatency::cpu.data 53528.493171                       # average ReadReq miss latency ((Tick/Count))
system.cpu.dcache.ReadReq.avgMissLatency::total 53528.493171                       # average ReadReq miss latency ((Tick/Count))
system.cpu.dcache.ReadReq.mshrHits::cpu.data        14948                       # number of ReadReq MSHR hits (Count)
system.cpu.dcache.ReadReq.mshrHits::total        14948                       # number of ReadReq MSHR hits (Count)
system.cpu.dcache.ReadReq.mshrMisses::cpu.data       730757                       # number of ReadReq MSHR misses (Count)
system.cpu.dcache.ReadReq.mshrMisses::total       730757                       # number of ReadReq MSHR misses (Count)
system.cpu.dcache.ReadReq.mshrMissLatency::cpu.data  38347891500                       # number of ReadReq MSHR miss ticks (Tick)
system.cpu.dcache.ReadReq.mshrMissLatency::total  38347891500                       # number of ReadReq MSHR miss ticks (Tick)
system.cpu.dcache.ReadReq.mshrMissRate::cpu.data     0.068130                       # mshr miss rate for ReadReq accesses (Ratio)
system.cpu.dcache.ReadReq.mshrMissRate::total     0.068130                       # mshr miss rate for ReadReq accesses (Ratio)
system.cpu.dcache.ReadReq.avgMshrMissLatency::cpu.data 52476.940351                       # average ReadReq mshr miss latency ((Tick/Count))
system.cpu.dcache.ReadReq.avgMshrMissLatency::total 52476.940351                       # average ReadReq mshr miss latency ((Tick/Count))
system.cpu.dcache.SoftPFReq.hits::cpu.data        15161                       # number of SoftPFReq hits (Count)
system.cpu.dcache.SoftPFReq.hits::total         15161                       # number of SoftPFReq hits (Count)
system.cpu.dcache.SoftPFReq.misses::cpu.data         2027                       # number of SoftPFReq misses (Count)
system.cpu.dcache.SoftPFReq.misses::total         2027                       # number of SoftPFReq misses (Count)
system.cpu.dcache.SoftPFReq.accesses::cpu.data        17188                       # number of SoftPFReq accesses(hits+misses) (Count)
system.cpu.dcache.SoftPFReq.accesses::total        17188                       # number of SoftPFReq accesses(hits+misses) (Count)
system.cpu.dcache.SoftPFReq.missRate::cpu.data     0.117931                       # miss rate for SoftPFReq accesses (Ratio)
system.cpu.dcache.SoftPFReq.missRate::total     0.117931                       # miss rate for SoftPFReq accesses (Ratio)
system.cpu.dcache.SoftPFReq.mshrMisses::cpu.data         2027                       # number of SoftPFReq MSHR misses (Count)
system.cpu.dcache.SoftPFReq.mshrMisses::total         2027                       # number of SoftPFReq MSHR misses (Count)
system.cpu.dcache.SoftPFReq.mshrMissLatency::cpu.data    108177000                       # number of SoftPFReq MSHR miss ticks (Tick)
system.cpu.dcache.SoftPFReq.mshrMissLatency::total    108177000                       # number of SoftPFReq MSHR miss ticks (Tick)
system.cpu.dcache.SoftPFReq.mshrMissRate::cpu.data     0.117931                       # mshr miss rate for SoftPFReq accesses (Ratio)
system.cpu.dcache.SoftPFReq.mshrMissRate::total     0.117931                       # mshr miss rate for SoftPFReq accesses (Ratio)
system.cpu.dcache.SoftPFReq.avgMshrMissLatency::cpu.data 53368.031574                       # average SoftPFReq mshr miss latency ((Tick/Count))
system.cpu.dcache.SoftPFReq.avgMshrMissLatency::total 53368.031574                       # average SoftPFReq mshr miss latency ((Tick/Count))
system.cpu.dcache.StoreCondReq.hits::cpu.data            4                       # number of StoreCondReq hits (Count)
system.cpu.dcache.StoreCondReq.hits::total            4                       # number of StoreCondReq hits (Count)
system.cpu.dcache.StoreCondReq.accesses::cpu.data            4                       # number of StoreCondReq accesses(hits+misses) (Count)
system.cpu.dcache.StoreCondReq.accesses::total            4                       # number of StoreCondReq accesses(hits+misses) (Count)
system.cpu.dcache.SwapReq.hits::cpu.data           18                       # number of SwapReq hits (Count)
system.cpu.dcache.SwapReq.hits::total              18                       # number of SwapReq hits (Count)
system.cpu.dcache.SwapReq.misses::cpu.data            2                       # number of SwapReq misses (Count)
system.cpu.dcache.SwapReq.misses::total             2                       # number of SwapReq misses (Count)
system.cpu.dcache.SwapReq.missLatency::cpu.data       102000                       # number of SwapReq miss ticks (Tick)
system.cpu.dcache.SwapReq.missLatency::total       102000                       # number of SwapReq miss ticks (Tick)
system.cpu.dcache.SwapReq.accesses::cpu.data           20                       # number of SwapReq accesses(hits+misses) (Count)
system.cpu.dcache.SwapReq.accesses::total           20                       # number of SwapReq accesses(hits+misses) (Count)
system.cpu.dcache.SwapReq.missRate::cpu.data     0.100000                       # miss rate for SwapReq accesses (Ratio)
system.cpu.dcache.SwapReq.missRate::total     0.100000                       # miss rate for SwapReq accesses (Ratio)
system.cpu.dcache.SwapReq.avgMissLatency::cpu.data        51000                       # average SwapReq miss latency ((Tick/Count))
system.cpu.dcache.SwapReq.avgMissLatency::total        51000                       # average SwapReq miss latency ((Tick/Count))
system.cpu.dcache.SwapReq.mshrMisses::cpu.data            2                       # number of SwapReq MSHR misses (Count)
system.cpu.dcache.SwapReq.mshrMisses::total            2                       # number of SwapReq MSHR misses (Count)
system.cpu.dcache.SwapReq.mshrMissLatency::cpu.data       100000                       # number of SwapReq MSHR miss ticks (Tick)
system.cpu.dcache.SwapReq.mshrMissLatency::total       100000                       # number of SwapReq MSHR miss ticks (Tick)
system.cpu.dcache.SwapReq.mshrMissRate::cpu.data     0.100000                       # mshr miss rate for SwapReq accesses (Ratio)
system.cpu.dcache.SwapReq.mshrMissRate::total     0.100000                       # mshr miss rate for SwapReq accesses (Ratio)
system.cpu.dcache.SwapReq.avgMshrMissLatency::cpu.data        50000                       # average SwapReq mshr miss latency ((Tick/Count))
system.cpu.dcache.SwapReq.avgMshrMissLatency::total        50000                       # average SwapReq mshr miss latency ((Tick/Count))
system.cpu.dcache.WriteLineReq.misses::cpu.data         2073                       # number of WriteLineReq misses (Count)
system.cpu.dcache.WriteLineReq.misses::total         2073                       # number of WriteLineReq misses (Count)
system.cpu.dcache.WriteLineReq.missLatency::cpu.data     27387249                       # number of WriteLineReq miss ticks (Tick)
system.cpu.dcache.WriteLineReq.missLatency::total     27387249                       # number of WriteLineReq miss ticks (Tick)
system.cpu.dcache.WriteLineReq.accesses::cpu.data         2073                       # number of WriteLineReq accesses(hits+misses) (Count)
system.cpu.dcache.WriteLineReq.accesses::total         2073                       # number of WriteLineReq accesses(hits+misses) (Count)
system.cpu.dcache.WriteLineReq.missRate::cpu.data            1                       # miss rate for WriteLineReq accesses (Ratio)
system.cpu.dcache.WriteLineReq.missRate::total            1                       # miss rate for WriteLineReq accesses (Ratio)
system.cpu.dcache.WriteLineReq.avgMissLatency::cpu.data 13211.408104                       # average WriteLineReq miss latency ((Tick/Count))
system.cpu.dcache.WriteLineReq.avgMissLatency::total 13211.408104                       # average WriteLineReq miss latency ((Tick/Count))
system.cpu.dcache.WriteLineReq.mshrMisses::cpu.data         2073                       # number of WriteLineReq MSHR misses (Count)
system.cpu.dcache.WriteLineReq.mshrMisses::total         2073                       # number of WriteLineReq MSHR misses (Count)
system.cpu.dcache.WriteLineReq.mshrMissLatency::cpu.data     25313249                       # number of WriteLineReq MSHR miss ticks (Tick)
system.cpu.dcache.WriteLineReq.mshrMissLatency::total     25313249                       # number of WriteLineReq MSHR miss ticks (Tick)
system.cpu.dcache.WriteLineReq.mshrMissRate::cpu.data            1                       # mshr miss rate for WriteLineReq accesses (Ratio)
system.cpu.dcache.WriteLineReq.mshrMissRate::total            1                       # mshr miss rate for WriteLineReq accesses (Ratio)
system.cpu.dcache.WriteLineReq.avgMshrMissLatency::cpu.data 12210.925712                       # average WriteLineReq mshr miss latency ((Tick/Count))
system.cpu.dcache.WriteLineReq.avgMshrMissLatency::total 12210.925712                       # average WriteLineReq mshr miss latency ((Tick/Count))
system.cpu.dcache.WriteReq.hits::cpu.data      2215812                       # number of WriteReq hits (Count)
system.cpu.dcache.WriteReq.hits::total        2215812                       # number of WriteReq hits (Count)
system.cpu.dcache.WriteReq.misses::cpu.data        87985                       # number of WriteReq misses (Count)
system.cpu.dcache.WriteReq.misses::total        87985                       # number of WriteReq misses (Count)
system.cpu.dcache.WriteReq.missLatency::cpu.data   2177325500                       # number of WriteReq miss ticks (Tick)
system.cpu.dcache.WriteReq.missLatency::total   2177325500                       # number of WriteReq miss ticks (Tick)
system.cpu.dcache.WriteReq.accesses::cpu.data      2303797                       # number of WriteReq accesses(hits+misses) (Count)
system.cpu.dcache.WriteReq.accesses::total      2303797                       # number of WriteReq accesses(hits+misses) (Count)
system.cpu.dcache.WriteReq.missRate::cpu.data     0.038191                       # miss rate for WriteReq accesses (Ratio)
system.cpu.dcache.WriteReq.missRate::total     0.038191                       # miss rate for WriteReq accesses (Ratio)
system.cpu.dcache.WriteReq.avgMissLatency::cpu.data 24746.553390                       # average WriteReq miss latency ((Tick/Count))
system.cpu.dcache.WriteReq.avgMissLatency::total 24746.553390                       # average WriteReq miss latency ((Tick/Count))
system.cpu.dcache.WriteReq.mshrHits::cpu.data        27964                       # number of WriteReq MSHR hits (Count)
system.cpu.dcache.WriteReq.mshrHits::total        27964                       # number of WriteReq MSHR hits (Count)
system.cpu.dcache.WriteReq.mshrMisses::cpu.data        60021                       # number of WriteReq MSHR misses (Count)
system.cpu.dcache.WriteReq.mshrMisses::total        60021                       # number of WriteReq MSHR misses (Count)
system.cpu.dcache.WriteReq.mshrMissLatency::cpu.data   1415860000                       # number of WriteReq MSHR miss ticks (Tick)
system.cpu.dcache.WriteReq.mshrMissLatency::total   1415860000                       # number of WriteReq MSHR miss ticks (Tick)
system.cpu.dcache.WriteReq.mshrMissRate::cpu.data     0.026053                       # mshr miss rate for WriteReq accesses (Ratio)
system.cpu.dcache.WriteReq.mshrMissRate::total     0.026053                       # mshr miss rate for WriteReq accesses (Ratio)
system.cpu.dcache.WriteReq.avgMshrMissLatency::cpu.data 23589.410373                       # average WriteReq mshr miss latency ((Tick/Count))
system.cpu.dcache.WriteReq.avgMshrMissLatency::total 23589.410373                       # average WriteReq mshr miss latency ((Tick/Count))
system.cpu.dcache.power_state.pwrStateResidencyTicks::UNDEFINED  61451027500                       # Cumulative time (in ticks) in various power states (Tick)
system.cpu.dcache.tags.tagsInUse            31.998462                       # Average ticks per tags in use ((Tick/Count))
system.cpu.dcache.tags.totalRefs             13006058                       # Total number of references to valid blocks. (Count)
system.cpu.dcache.tags.sampledRefs             794881                       # Sample count of references to valid blocks. (Count)
system.cpu.dcache.tags.avgRefs              16.362271                       # Average number of references to valid blocks. ((Count/Count))
system.cpu.dcache.tags.warmupTick              145000                       # The tick when the warmup percentage was hit. (Tick)
system.cpu.dcache.tags.occupancies::cpu.data    31.998462                       # Average occupied blocks per tick, per requestor ((Count/Tick))
system.cpu.dcache.tags.avgOccs::cpu.data     0.999952                       # Average percentage of cache occupancy ((Ratio/Tick))
system.cpu.dcache.tags.avgOccs::total        0.999952                       # Average percentage of cache occupancy ((Ratio/Tick))
system.cpu.dcache.tags.occupanciesTaskId::1024           32                       # Occupied blocks per task id (Count)
system.cpu.dcache.tags.ageTaskId_1024::0           28                       # Occupied blocks per task id, per block age (Count)
system.cpu.dcache.tags.ageTaskId_1024::1            4                       # Occupied blocks per task id, per block age (Count)
system.cpu.dcache.tags.ratioOccsTaskId::1024            1                       # Ratio of occupied blocks and all blocks, per task id (Ratio)
system.cpu.dcache.tags.tagAccesses           26892821                       # Number of tag accesses (Count)
system.cpu.dcache.tags.dataAccesses          26892821                       # Number of data accesses (Count)
system.cpu.dcache.tags.power_state.pwrStateResidencyTicks::UNDEFINED  61451027500                       # Cumulative time (in ticks) in various power states (Tick)
system.cpu.fetch2.intInstructions            19587888                       # Number of integer instructions successfully decoded (Count)
system.cpu.fetch2.fpInstructions                    0                       # Number of floating point instructions successfully decoded (Count)
system.cpu.fetch2.vecInstructions             1958253                       # Number of SIMD instructions successfully decoded (Count)
system.cpu.fetch2.loadInstructions           11746879                       # Number of memory load instructions successfully decoded (Count)
system.cpu.fetch2.storeInstructions           1747782                       # Number of memory store instructions successfully decoded (Count)
system.cpu.fetch2.amoInstructions                  24                       # Number of memory atomic instructions successfully decoded (Count)
system.cpu.icache.demandHits::cpu.inst        8904132                       # number of demand (read+write) hits (Count)
system.cpu.icache.demandHits::total           8904132                       # number of demand (read+write) hits (Count)
system.cpu.icache.overallHits::cpu.inst       8904132                       # number of overall hits (Count)
system.cpu.icache.overallHits::total          8904132                       # number of overall hits (Count)
system.cpu.icache.demandMisses::cpu.inst         1602                       # number of demand (read+write) misses (Count)
system.cpu.icache.demandMisses::total            1602                       # number of demand (read+write) misses (Count)
system.cpu.icache.overallMisses::cpu.inst         1602                       # number of overall misses (Count)
system.cpu.icache.overallMisses::total           1602                       # number of overall misses (Count)
system.cpu.icache.demandMissLatency::cpu.inst     79567500                       # number of demand (read+write) miss ticks (Tick)
system.cpu.icache.demandMissLatency::total     79567500                       # number of demand (read+write) miss ticks (Tick)
system.cpu.icache.overallMissLatency::cpu.inst     79567500                       # number of overall miss ticks (Tick)
system.cpu.icache.overallMissLatency::total     79567500                       # number of overall miss ticks (Tick)
system.cpu.icache.demandAccesses::cpu.inst      8905734                       # number of demand (read+write) accesses (Count)
system.cpu.icache.demandAccesses::total       8905734                       # number of demand (read+write) accesses (Count)
system.cpu.icache.overallAccesses::cpu.inst      8905734                       # number of overall (read+write) accesses (Count)
system.cpu.icache.overallAccesses::total      8905734                       # number of overall (read+write) accesses (Count)
system.cpu.icache.demandMissRate::cpu.inst     0.000180                       # miss rate for demand accesses (Ratio)
system.cpu.icache.demandMissRate::total      0.000180                       # miss rate for demand accesses (Ratio)
system.cpu.icache.overallMissRate::cpu.inst     0.000180                       # miss rate for overall accesses (Ratio)
system.cpu.icache.overallMissRate::total     0.000180                       # miss rate for overall accesses (Ratio)
system.cpu.icache.demandAvgMissLatency::cpu.inst 49667.602996                       # average overall miss latency ((Cycle/Count))
system.cpu.icache.demandAvgMissLatency::total 49667.602996                       # average overall miss latency ((Cycle/Count))
system.cpu.icache.overallAvgMissLatency::cpu.inst 49667.602996                       # average overall miss latency ((Cycle/Count))
system.cpu.icache.overallAvgMissLatency::total 49667.602996                       # average overall miss latency ((Cycle/Count))
system.cpu.icache.blockedCycles::no_mshrs            0                       # number of cycles access was blocked (Cycle)
system.cpu.icache.blockedCycles::no_targets            0                       # number of cycles access was blocked (Cycle)
system.cpu.icache.blockedCauses::no_mshrs            0                       # number of times access was blocked (Count)
system.cpu.icache.blockedCauses::no_targets            0                       # number of times access was blocked (Count)
system.cpu.icache.avgBlocked::no_mshrs            nan                       # average number of cycles each access was blocked ((Cycle/Count))
system.cpu.icache.avgBlocked::no_targets          nan                       # average number of cycles each access was blocked ((Cycle/Count))
system.cpu.icache.writebacks::writebacks         1115                       # number of writebacks (Count)
system.cpu.icache.writebacks::total              1115                       # number of writebacks (Count)
system.cpu.icache.demandMshrMisses::cpu.inst         1602                       # number of demand (read+write) MSHR misses (Count)
system.cpu.icache.demandMshrMisses::total         1602                       # number of demand (read+write) MSHR misses (Count)
system.cpu.icache.overallMshrMisses::cpu.inst         1602                       # number of overall MSHR misses (Count)
system.cpu.icache.overallMshrMisses::total         1602                       # number of overall MSHR misses (Count)
system.cpu.icache.demandMshrMissLatency::cpu.inst     77966500                       # number of demand (read+write) MSHR miss ticks (Tick)
system.cpu.icache.demandMshrMissLatency::total     77966500                       # number of demand (read+write) MSHR miss ticks (Tick)
system.cpu.icache.overallMshrMissLatency::cpu.inst     77966500                       # number of overall MSHR miss ticks (Tick)
system.cpu.icache.overallMshrMissLatency::total     77966500                       # number of overall MSHR miss ticks (Tick)
system.cpu.icache.demandMshrMissRate::cpu.inst     0.000180                       # mshr miss ratio for demand accesses (Ratio)
system.cpu.icache.demandMshrMissRate::total     0.000180                       # mshr miss ratio for demand accesses (Ratio)
system.cpu.icache.overallMshrMissRate::cpu.inst     0.000180                       # mshr miss ratio for overall accesses (Ratio)
system.cpu.icache.overallMshrMissRate::total     0.000180                       # mshr miss ratio for overall accesses (Ratio)
system.cpu.icache.demandAvgMshrMissLatency::cpu.inst 48668.227216                       # average overall mshr miss latency ((Cycle/Count))
system.cpu.icache.demandAvgMshrMissLatency::total 48668.227216                       # average overall mshr miss latency ((Cycle/Count))
system.cpu.icache.overallAvgMshrMissLatency::cpu.inst 48668.227216                       # average overall mshr miss latency ((Cycle/Count))
system.cpu.icache.overallAvgMshrMissLatency::total 48668.227216                       # average overall mshr miss latency ((Cycle/Count))
system.cpu.icache.replacements                   1115                       # number of replacements (Count)
system.cpu.icache.ReadReq.hits::cpu.inst      8904132                       # number of ReadReq hits (Count)
system.cpu.icache.ReadReq.hits::total         8904132                       # number of ReadReq hits (Count)
system.cpu.icache.ReadReq.misses::cpu.inst         1602                       # number of ReadReq misses (Count)
system.cpu.icache.ReadReq.misses::total          1602                       # number of ReadReq misses (Count)
system.cpu.icache.ReadReq.missLatency::cpu.inst     79567500                       # number of ReadReq miss ticks (Tick)
system.cpu.icache.ReadReq.missLatency::total     79567500                       # number of ReadReq miss ticks (Tick)
system.cpu.icache.ReadReq.accesses::cpu.inst      8905734                       # number of ReadReq accesses(hits+misses) (Count)
system.cpu.icache.ReadReq.accesses::total      8905734                       # number of ReadReq accesses(hits+misses) (Count)
system.cpu.icache.ReadReq.missRate::cpu.inst     0.000180                       # miss rate for ReadReq accesses (Ratio)
system.cpu.icache.ReadReq.missRate::total     0.000180                       # miss rate for ReadReq accesses (Ratio)
system.cpu.icache.ReadReq.avgMissLatency::cpu.inst 49667.602996                       # average ReadReq miss latency ((Tick/Count))
system.cpu.icache.ReadReq.avgMissLatency::total 49667.602996                       # average ReadReq miss latency ((Tick/Count))
system.cpu.icache.ReadReq.mshrMisses::cpu.inst         1602                       # number of ReadReq MSHR misses (Count)
system.cpu.icache.ReadReq.mshrMisses::total         1602                       # number of ReadReq MSHR misses (Count)
system.cpu.icache.ReadReq.mshrMissLatency::cpu.inst     77966500                       # number of ReadReq MSHR miss ticks (Tick)
system.cpu.icache.ReadReq.mshrMissLatency::total     77966500                       # number of ReadReq MSHR miss ticks (Tick)
system.cpu.icache.ReadReq.mshrMissRate::cpu.inst     0.000180                       # mshr miss rate for ReadReq accesses (Ratio)
system.cpu.icache.ReadReq.mshrMissRate::total     0.000180                       # mshr miss rate for ReadReq accesses (Ratio)
system.cpu.icache.ReadReq.avgMshrMissLatency::cpu.inst 48668.227216                       # average ReadReq mshr miss latency ((Tick/Count))
system.cpu.icache.ReadReq.avgMshrMissLatency::total 48668.227216                       # average ReadReq mshr miss latency ((Tick/Count))
system.cpu.icache.power_state.pwrStateResidencyTicks::UNDEFINED  61451027500                       # Cumulative time (in ticks) in various power states (Tick)
system.cpu.icache.tags.tagsInUse           419.114609                       # Average ticks per tags in use ((Tick/Count))
system.cpu.icache.tags.totalRefs              8905733                       # Total number of references to valid blocks. (Count)
system.cpu.icache.tags.sampledRefs               1601                       # Sample count of references to valid blocks. (Count)
system.cpu.icache.tags.avgRefs            5562.606496                       # Average number of references to valid blocks. ((Count/Count))
system.cpu.icache.tags.warmupTick               77000                       # The tick when the warmup percentage was hit. (Tick)
system.cpu.icache.tags.occupancies::cpu.inst   419.114609                       # Average occupied blocks per tick, per requestor ((Count/Tick))
system.cpu.icache.tags.avgOccs::cpu.inst     0.818583                       # Average percentage of cache occupancy ((Ratio/Tick))
system.cpu.icache.tags.avgOccs::total        0.818583                       # Average percentage of cache occupancy ((Ratio/Tick))
system.cpu.icache.tags.occupanciesTaskId::1024          486                       # Occupied blocks per task id (Count)
system.cpu.icache.tags.ageTaskId_1024::0           99                       # Occupied blocks per task id, per block age (Count)
system.cpu.icache.tags.ageTaskId_1024::1          102                       # Occupied blocks per task id, per block age (Count)
system.cpu.icache.tags.ageTaskId_1024::2           85                       # Occupied blocks per task id, per block age (Count)
system.cpu.icache.tags.ageTaskId_1024::4          200                       # Occupied blocks per task id, per block age (Count)
system.cpu.icache.tags.ratioOccsTaskId::1024     0.949219                       # Ratio of occupied blocks and all blocks, per task id (Ratio)
system.cpu.icache.tags.tagAccesses           17813069                       # Number of tag accesses (Count)
system.cpu.icache.tags.dataAccesses          17813069                       # Number of data accesses (Count)
system.cpu.icache.tags.power_state.pwrStateResidencyTicks::UNDEFINED  61451027500                       # Cumulative time (in ticks) in various power states (Tick)
system.cpu.mmu.alignFaults                          0                       # Number of MMU faults due to alignment restrictions (Count)
system.cpu.mmu.prefetchFaults                       0                       # Number of MMU faults due to prefetch (Count)
system.cpu.mmu.domainFaults                         0                       # Number of MMU faults due to domain restrictions (Count)
system.cpu.mmu.permsFaults                          0                       # Number of MMU faults due to permissions restrictions (Count)
system.cpu.mmu.dtb.readHits                         0                       # Read hits (Count)
system.cpu.mmu.dtb.readMisses                       0                       # Read misses (Count)
system.cpu.mmu.dtb.writeHits                        0                       # Write hits (Count)
system.cpu.mmu.dtb.writeMisses                      0                       # Write misses (Count)
system.cpu.mmu.dtb.inserts                          0                       # Number of times an entry is inserted into the TLB (Count)
system.cpu.mmu.dtb.flushTlb                         1                       # Number of times complete TLB was flushed (Count)
system.cpu.mmu.dtb.flushTlbMva                      0                       # Number of times TLB was flushed by MVA (Count)
system.cpu.mmu.dtb.flushTlbMvaAsid                  0                       # Number of times TLB was flushed by MVA & ASID (Count)
system.cpu.mmu.dtb.flushTlbAsid                     0                       # Number of times TLB was flushed by ASID (Count)
system.cpu.mmu.dtb.flushedEntries                   0                       # Number of entries that have been flushed from TLB (Count)
system.cpu.mmu.dtb.readAccesses                     0                       # Read accesses (Count)
system.cpu.mmu.dtb.writeAccesses                    0                       # Write accesses (Count)
system.cpu.mmu.dtb.hits                             0                       # Total TLB (inst and data) hits (Count)
system.cpu.mmu.dtb.misses                           0                       # Total TLB (inst and data) misses (Count)
system.cpu.mmu.dtb.accesses                         0                       # Total TLB (inst and data) accesses (Count)
system.cpu.mmu.dtb_walker.walks                     0                       # Table walker walks requested (Count)
system.cpu.mmu.dtb_walker.requestOrigin_Requested::Data            0                       # Table walker requests started/completed, data/inst (Count)
system.cpu.mmu.dtb_walker.requestOrigin_Requested::Inst            0                       # Table walker requests started/completed, data/inst (Count)
system.cpu.mmu.dtb_walker.requestOrigin_Requested::total            0                       # Table walker requests started/completed, data/inst (Count)
system.cpu.mmu.dtb_walker.requestOrigin_Completed::Data            0                       # Table walker requests started/completed, data/inst (Count)
system.cpu.mmu.dtb_walker.requestOrigin_Completed::Inst            0                       # Table walker requests started/completed, data/inst (Count)
system.cpu.mmu.dtb_walker.requestOrigin_Completed::total            0                       # Table walker requests started/completed, data/inst (Count)
system.cpu.mmu.dtb_walker.requestOrigin::total            0                       # Table walker requests started/completed, data/inst (Count)
system.cpu.mmu.dtb_walker.power_state.pwrStateResidencyTicks::UNDEFINED  61451027500                       # Cumulative time (in ticks) in various power states (Tick)
system.cpu.mmu.itb.instHits                         0                       # Inst hits (Count)
system.cpu.mmu.itb.instMisses                       0                       # Inst misses (Count)
system.cpu.mmu.itb.inserts                          0                       # Number of times an entry is inserted into the TLB (Count)
system.cpu.mmu.itb.flushTlb                         1                       # Number of times complete TLB was flushed (Count)
system.cpu.mmu.itb.flushTlbMva                      0                       # Number of times TLB was flushed by MVA (Count)
system.cpu.mmu.itb.flushTlbMvaAsid                  0                       # Number of times TLB was flushed by MVA & ASID (Count)
system.cpu.mmu.itb.flushTlbAsid                     0                       # Number of times TLB was flushed by ASID (Count)
system.cpu.mmu.itb.flushedEntries                   0                       # Number of entries that have been flushed from TLB (Count)
system.cpu.mmu.itb.instAccesses                     0                       # Inst accesses (Count)
system.cpu.mmu.itb.hits                             0                       # Total TLB (inst and data) hits (Count)
system.cpu.mmu.itb.misses                           0                       # Total TLB (inst and data) misses (Count)
system.cpu.mmu.itb.accesses                         0                       # Total TLB (inst and data) accesses (Count)
system.cpu.mmu.itb_walker.walks                     0                       # Table walker walks requested (Count)
system.cpu.mmu.itb_walker.requestOrigin_Requested::Data            0                       # Table walker requests started/completed, data/inst (Count)
system.cpu.mmu.itb_walker.requestOrigin_Requested::Inst            0                       # Table walker requests started/completed, data/inst (Count)
system.cpu.mmu.itb_walker.requestOrigin_Requested::total            0                       # Table walker requests started/completed, data/inst (Count)
system.cpu.mmu.itb_walker.requestOrigin_Completed::Data            0                       # Table walker requests started/completed, data/inst (Count)
system.cpu.mmu.itb_walker.requestOrigin_Completed::Inst            0                       # Table walker requests started/completed, data/inst (Count)
system.cpu.mmu.itb_walker.requestOrigin_Completed::total            0                       # Table walker requests started/completed, data/inst (Count)
system.cpu.mmu.itb_walker.requestOrigin::total            0                       # Table walker requests started/completed, data/inst (Count)
system.cpu.mmu.itb_walker.power_state.pwrStateResidencyTicks::UNDEFINED  61451027500                       # Cumulative time (in ticks) in various power states (Tick)
system.cpu.mmu.l2_shared.instHits                   0                       # Inst hits (Count)
system.cpu.mmu.l2_shared.instMisses                 0                       # Inst misses (Count)
system.cpu.mmu.l2_shared.inserts                    0                       # Number of times an entry is inserted into the TLB (Count)
system.cpu.mmu.l2_shared.flushTlb                   1                       # Number of times complete TLB was flushed (Count)
system.cpu.mmu.l2_shared.flushTlbMva                0                       # Number of times TLB was flushed by MVA (Count)
system.cpu.mmu.l2_shared.flushTlbMvaAsid            0                       # Number of times TLB was flushed by MVA & ASID (Count)
system.cpu.mmu.l2_shared.flushTlbAsid               0                       # Number of times TLB was flushed by ASID (Count)
system.cpu.mmu.l2_shared.flushedEntries             0                       # Number of entries that have been flushed from TLB (Count)
system.cpu.mmu.l2_shared.instAccesses               0                       # Inst accesses (Count)
system.cpu.mmu.l2_shared.hits                       0                       # Total TLB (inst and data) hits (Count)
system.cpu.mmu.l2_shared.misses                     0                       # Total TLB (inst and data) misses (Count)
system.cpu.mmu.l2_shared.accesses                   0                       # Total TLB (inst and data) accesses (Count)
system.cpu.mmu.stage2_dtb.readHits                  0                       # Read hits (Count)
system.cpu.mmu.stage2_dtb.readMisses                0                       # Read misses (Count)
system.cpu.mmu.stage2_dtb.writeHits                 0                       # Write hits (Count)
system.cpu.mmu.stage2_dtb.writeMisses               0                       # Write misses (Count)
system.cpu.mmu.stage2_dtb.inserts                   0                       # Number of times an entry is inserted into the TLB (Count)
system.cpu.mmu.stage2_dtb.flushTlb                  1                       # Number of times complete TLB was flushed (Count)
system.cpu.mmu.stage2_dtb.flushTlbMva               0                       # Number of times TLB was flushed by MVA (Count)
system.cpu.mmu.stage2_dtb.flushTlbMvaAsid            0                       # Number of times TLB was flushed by MVA & ASID (Count)
system.cpu.mmu.stage2_dtb.flushTlbAsid              0                       # Number of times TLB was flushed by ASID (Count)
system.cpu.mmu.stage2_dtb.flushedEntries            0                       # Number of entries that have been flushed from TLB (Count)
system.cpu.mmu.stage2_dtb.readAccesses              0                       # Read accesses (Count)
system.cpu.mmu.stage2_dtb.writeAccesses             0                       # Write accesses (Count)
system.cpu.mmu.stage2_dtb.hits                      0                       # Total TLB (inst and data) hits (Count)
system.cpu.mmu.stage2_dtb.misses                    0                       # Total TLB (inst and data) misses (Count)
system.cpu.mmu.stage2_dtb.accesses                  0                       # Total TLB (inst and data) accesses (Count)
system.cpu.mmu.stage2_dtb_walker.walks              0                       # Table walker walks requested (Count)
system.cpu.mmu.stage2_dtb_walker.requestOrigin_Requested::Data            0                       # Table walker requests started/completed, data/inst (Count)
system.cpu.mmu.stage2_dtb_walker.requestOrigin_Requested::Inst            0                       # Table walker requests started/completed, data/inst (Count)
system.cpu.mmu.stage2_dtb_walker.requestOrigin_Requested::total            0                       # Table walker requests started/completed, data/inst (Count)
system.cpu.mmu.stage2_dtb_walker.requestOrigin_Completed::Data            0                       # Table walker requests started/completed, data/inst (Count)
system.cpu.mmu.stage2_dtb_walker.requestOrigin_Completed::Inst            0                       # Table walker requests started/completed, data/inst (Count)
system.cpu.mmu.stage2_dtb_walker.requestOrigin_Completed::total            0                       # Table walker requests started/completed, data/inst (Count)
system.cpu.mmu.stage2_dtb_walker.requestOrigin::total            0                       # Table walker requests started/completed, data/inst (Count)
system.cpu.mmu.stage2_dtb_walker.power_state.pwrStateResidencyTicks::UNDEFINED  61451027500                       # Cumulative time (in ticks) in various power states (Tick)
system.cpu.mmu.stage2_itb.instHits                  0                       # Inst hits (Count)
system.cpu.mmu.stage2_itb.instMisses                0                       # Inst misses (Count)
system.cpu.mmu.stage2_itb.inserts                   0                       # Number of times an entry is inserted into the TLB (Count)
system.cpu.mmu.stage2_itb.flushTlb                  1                       # Number of times complete TLB was flushed (Count)
system.cpu.mmu.stage2_itb.flushTlbMva               0                       # Number of times TLB was flushed by MVA (Count)
system.cpu.mmu.stage2_itb.flushTlbMvaAsid            0                       # Number of times TLB was flushed by MVA & ASID (Count)
system.cpu.mmu.stage2_itb.flushTlbAsid              0                       # Number of times TLB was flushed by ASID (Count)
system.cpu.mmu.stage2_itb.flushedEntries            0                       # Number of entries that have been flushed from TLB (Count)
system.cpu.mmu.stage2_itb.instAccesses              0                       # Inst accesses (Count)
system.cpu.mmu.stage2_itb.hits                      0                       # Total TLB (inst and data) hits (Count)
system.cpu.mmu.stage2_itb.misses                    0                       # Total TLB (inst and data) misses (Count)
system.cpu.mmu.stage2_itb.accesses                  0                       # Total TLB (inst and data) accesses (Count)
system.cpu.mmu.stage2_itb_walker.walks              0                       # Table walker walks requested (Count)
system.cpu.mmu.stage2_itb_walker.requestOrigin_Requested::Data            0                       # Table walker requests started/completed, data/inst (Count)
system.cpu.mmu.stage2_itb_walker.requestOrigin_Requested::Inst            0                       # Table walker requests started/completed, data/inst (Count)
system.cpu.mmu.stage2_itb_walker.requestOrigin_Requested::total            0                       # Table walker requests started/completed, data/inst (Count)
system.cpu.mmu.stage2_itb_walker.requestOrigin_Completed::Data            0                       # Table walker requests started/completed, data/inst (Count)
system.cpu.mmu.stage2_itb_walker.requestOrigin_Completed::Inst            0                       # Table walker requests started/completed, data/inst (Count)
system.cpu.mmu.stage2_itb_walker.requestOrigin_Completed::total            0                       # Table walker requests started/completed, data/inst (Count)
system.cpu.mmu.stage2_itb_walker.requestOrigin::total            0                       # Table walker requests started/completed, data/inst (Count)
system.cpu.mmu.stage2_itb_walker.power_state.pwrStateResidencyTicks::UNDEFINED  61451027500                       # Cumulative time (in ticks) in various power states (Tick)
system.cpu.power_state.pwrStateResidencyTicks::ON  61451027500                       # Cumulative time (in ticks) in various power states (Tick)
system.cpu.thread_0.numInsts                 37297056                       # Number of Instructions committed (Count)
system.cpu.thread_0.numOps                   38450592                       # Number of Ops committed (Count)
system.cpu.thread_0.numMemRefs                      0                       # Number of Memory References (Count)
system.cpu.workload.numSyscalls                   164                       # Number of system calls (Count)
system.cpu_clk_domain.clock                       500                       # Clock period in ticks (Tick)
system.cpu_voltage_domain.voltage                   1                       # Voltage in Volts (Volt)
system.mem_ctrls.avgPriority_writebacks::samples      9130.00                       # Average QoS priority value for accepted requests (Count)
system.mem_ctrls.avgPriority_cpu.inst::samples      1080.00                       # Average QoS priority value for accepted requests (Count)
system.mem_ctrls.avgPriority_cpu.data::samples    696904.00                       # Average QoS priority value for accepted requests (Count)
system.mem_ctrls.priorityMinLatency      0.000000018750                       # per QoS priority minimum request to response latency (Second)
system.mem_ctrls.priorityMaxLatency      0.021158089250                       # per QoS priority maximum request to response latency (Second)
system.mem_ctrls.numReadWriteTurnArounds          437                       # Number of turnarounds from READ to WRITE (Count)
system.mem_ctrls.numWriteReadTurnArounds          437                       # Number of turnarounds from WRITE to READ (Count)
system.mem_ctrls.numStayReadState             1488715                       # Number of times bus staying in READ state (Count)
system.mem_ctrls.numStayWriteState               8745                       # Number of times bus staying in WRITE state (Count)
system.mem_ctrls.readReqs                      794410                       # Number of read requests accepted (Count)
system.mem_ctrls.writeReqs                      79455                       # Number of write requests accepted (Count)
system.mem_ctrls.readBursts                    794410                       # Number of controller read bursts, including those serviced by the write queue (Count)
system.mem_ctrls.writeBursts                    79455                       # Number of controller write bursts, including those merged in the write queue (Count)
system.mem_ctrls.servicedByWrQ                  96426                       # Number of controller read bursts serviced by the write queue (Count)
system.mem_ctrls.mergedWrBursts                 70325                       # Number of controller write bursts merged with an existing one (Count)
system.mem_ctrls.neitherReadNorWriteReqs            0                       # Number of requests that are neither read nor write (Count)
system.mem_ctrls.avgRdQLen                       1.00                       # Average read queue length when enqueuing ((Count/Tick))
system.mem_ctrls.avgWrQLen                      25.35                       # Average write queue length when enqueuing ((Count/Tick))
system.mem_ctrls.numRdRetry                         0                       # Number of times read queue was full causing retry (Count)
system.mem_ctrls.numWrRetry                         8                       # Number of times write queue was full causing retry (Count)
system.mem_ctrls.readPktSize::0                     0                       # Read request sizes (log2) (Count)
system.mem_ctrls.readPktSize::1                     0                       # Read request sizes (log2) (Count)
system.mem_ctrls.readPktSize::2                     0                       # Read request sizes (log2) (Count)
system.mem_ctrls.readPktSize::3                     0                       # Read request sizes (log2) (Count)
system.mem_ctrls.readPktSize::4                     0                       # Read request sizes (log2) (Count)
system.mem_ctrls.readPktSize::5                     0                       # Read request sizes (log2) (Count)
system.mem_ctrls.readPktSize::6                794410                       # Read request sizes (log2) (Count)
system.mem_ctrls.writePktSize::0                    0                       # Write request sizes (log2) (Count)
system.mem_ctrls.writePktSize::1                    0                       # Write request sizes (log2) (Count)
system.mem_ctrls.writePktSize::2                    0                       # Write request sizes (log2) (Count)
system.mem_ctrls.writePktSize::3                    0                       # Write request sizes (log2) (Count)
system.mem_ctrls.writePktSize::4                    0                       # Write request sizes (log2) (Count)
system.mem_ctrls.writePktSize::5                    0                       # Write request sizes (log2) (Count)
system.mem_ctrls.writePktSize::6                79455                       # Write request sizes (log2) (Count)
system.mem_ctrls.rdQLenPdf::0                  696618                       # What read queue length does an incoming req see (Count)
system.mem_ctrls.rdQLenPdf::1                    1351                       # What read queue length does an incoming req see (Count)
system.mem_ctrls.rdQLenPdf::2                      15                       # What read queue length does an incoming req see (Count)
system.mem_ctrls.rdQLenPdf::3                       0                       # What read queue length does an incoming req see (Count)
system.mem_ctrls.rdQLenPdf::4                       0                       # What read queue length does an incoming req see (Count)
system.mem_ctrls.rdQLenPdf::5                       0                       # What read queue length does an incoming req see (Count)
system.mem_ctrls.rdQLenPdf::6                       0                       # What read queue length does an incoming req see (Count)
system.mem_ctrls.rdQLenPdf::7                       0                       # What read queue length does an incoming req see (Count)
system.mem_ctrls.rdQLenPdf::8                       0                       # What read queue length does an incoming req see (Count)
system.mem_ctrls.rdQLenPdf::9                       0                       # What read queue length does an incoming req see (Count)
system.mem_ctrls.rdQLenPdf::10                      0                       # What read queue length does an incoming req see (Count)
system.mem_ctrls.rdQLenPdf::11                      0                       # What read queue length does an incoming req see (Count)
system.mem_ctrls.rdQLenPdf::12                      0                       # What read queue length does an incoming req see (Count)
system.mem_ctrls.rdQLenPdf::13                      0                       # What read queue length does an incoming req see (Count)
system.mem_ctrls.rdQLenPdf::14                      0                       # What read queue length does an incoming req see (Count)
system.mem_ctrls.rdQLenPdf::15                      0                       # What read queue length does an incoming req see (Count)
system.mem_ctrls.rdQLenPdf::16                      0                       # What read queue length does an incoming req see (Count)
system.mem_ctrls.rdQLenPdf::17                      0                       # What read queue length does an incoming req see (Count)
system.mem_ctrls.rdQLenPdf::18                      0                       # What read queue length does an incoming req see (Count)
system.mem_ctrls.rdQLenPdf::19                      0                       # What read queue length does an incoming req see (Count)
system.mem_ctrls.rdQLenPdf::20                      0                       # What read queue length does an incoming req see (Count)
system.mem_ctrls.rdQLenPdf::21                      0                       # What read queue length does an incoming req see (Count)
system.mem_ctrls.rdQLenPdf::22                      0                       # What read queue length does an incoming req see (Count)
system.mem_ctrls.rdQLenPdf::23                      0                       # What read queue length does an incoming req see (Count)
system.mem_ctrls.rdQLenPdf::24                      0                       # What read queue length does an incoming req see (Count)
system.mem_ctrls.rdQLenPdf::25                      0                       # What read queue length does an incoming req see (Count)
system.mem_ctrls.rdQLenPdf::26                      0                       # What read queue length does an incoming req see (Count)
system.mem_ctrls.rdQLenPdf::27                      0                       # What read queue length does an incoming req see (Count)
system.mem_ctrls.rdQLenPdf::28                      0                       # What read queue length does an incoming req see (Count)
system.mem_ctrls.rdQLenPdf::29                      0                       # What read queue length does an incoming req see (Count)
system.mem_ctrls.rdQLenPdf::30                      0                       # What read queue length does an incoming req see (Count)
system.mem_ctrls.rdQLenPdf::31                      0                       # What read queue length does an incoming req see (Count)
system.mem_ctrls.wrQLenPdf::0                       1                       # What write queue length does an incoming req see (Count)
system.mem_ctrls.wrQLenPdf::1                       1                       # What write queue length does an incoming req see (Count)
system.mem_ctrls.wrQLenPdf::2                       1                       # What write queue length does an incoming req see (Count)
system.mem_ctrls.wrQLenPdf::3                       1                       # What write queue length does an incoming req see (Count)
system.mem_ctrls.wrQLenPdf::4                       1                       # What write queue length does an incoming req see (Count)
system.mem_ctrls.wrQLenPdf::5                       1                       # What write queue length does an incoming req see (Count)
system.mem_ctrls.wrQLenPdf::6                       1                       # What write queue length does an incoming req see (Count)
system.mem_ctrls.wrQLenPdf::7                       1                       # What write queue length does an incoming req see (Count)
system.mem_ctrls.wrQLenPdf::8                       1                       # What write queue length does an incoming req see (Count)
system.mem_ctrls.wrQLenPdf::9                       1                       # What write queue length does an incoming req see (Count)
system.mem_ctrls.wrQLenPdf::10                      1                       # What write queue length does an incoming req see (Count)
system.mem_ctrls.wrQLenPdf::11                      1                       # What write queue length does an incoming req see (Count)
system.mem_ctrls.wrQLenPdf::12                      1                       # What write queue length does an incoming req see (Count)
system.mem_ctrls.wrQLenPdf::13                      1                       # What write queue length does an incoming req see (Count)
system.mem_ctrls.wrQLenPdf::14                      1                       # What write queue length does an incoming req see (Count)
system.mem_ctrls.wrQLenPdf::15                    111                       # What write queue length does an incoming req see (Count)
system.mem_ctrls.wrQLenPdf::16                    129                       # What write queue length does an incoming req see (Count)
system.mem_ctrls.wrQLenPdf::17                    423                       # What write queue length does an incoming req see (Count)
system.mem_ctrls.wrQLenPdf::18                    452                       # What write queue length does an incoming req see (Count)
system.mem_ctrls.wrQLenPdf::19                    454                       # What write queue length does an incoming req see (Count)
system.mem_ctrls.wrQLenPdf::20                    473                       # What write queue length does an incoming req see (Count)
system.mem_ctrls.wrQLenPdf::21                    479                       # What write queue length does an incoming req see (Count)
system.mem_ctrls.wrQLenPdf::22                    482                       # What write queue length does an incoming req see (Count)
system.mem_ctrls.wrQLenPdf::23                    489                       # What write queue length does an incoming req see (Count)
system.mem_ctrls.wrQLenPdf::24                    499                       # What write queue length does an incoming req see (Count)
system.mem_ctrls.wrQLenPdf::25                    485                       # What write queue length does an incoming req see (Count)
system.mem_ctrls.wrQLenPdf::26                    497                       # What write queue length does an incoming req see (Count)
system.mem_ctrls.wrQLenPdf::27                    510                       # What write queue length does an incoming req see (Count)
system.mem_ctrls.wrQLenPdf::28                    499                       # What write queue length does an incoming req see (Count)
system.mem_ctrls.wrQLenPdf::29                    491                       # What write queue length does an incoming req see (Count)
system.mem_ctrls.wrQLenPdf::30                    501                       # What write queue length does an incoming req see (Count)
system.mem_ctrls.wrQLenPdf::31                    502                       # What write queue length does an incoming req see (Count)
system.mem_ctrls.wrQLenPdf::32                    494                       # What write queue length does an incoming req see (Count)
system.mem_ctrls.wrQLenPdf::33                     62                       # What write queue length does an incoming req see (Count)
system.mem_ctrls.wrQLenPdf::34                     49                       # What write queue length does an incoming req see (Count)
system.mem_ctrls.wrQLenPdf::35                     42                       # What write queue length does an incoming req see (Count)
system.mem_ctrls.wrQLenPdf::36                     37                       # What write queue length does an incoming req see (Count)
system.mem_ctrls.wrQLenPdf::37                     44                       # What write queue length does an incoming req see (Count)
system.mem_ctrls.wrQLenPdf::38                     28                       # What write queue length does an incoming req see (Count)
system.mem_ctrls.wrQLenPdf::39                     29                       # What write queue length does an incoming req see (Count)
system.mem_ctrls.wrQLenPdf::40                     29                       # What write queue length does an incoming req see (Count)
system.mem_ctrls.wrQLenPdf::41                     37                       # What write queue length does an incoming req see (Count)
system.mem_ctrls.wrQLenPdf::42                     43                       # What write queue length does an incoming req see (Count)
system.mem_ctrls.wrQLenPdf::43                     51                       # What write queue length does an incoming req see (Count)
system.mem_ctrls.wrQLenPdf::44                     40                       # What write queue length does an incoming req see (Count)
system.mem_ctrls.wrQLenPdf::45                     46                       # What write queue length does an incoming req see (Count)
system.mem_ctrls.wrQLenPdf::46                     51                       # What write queue length does an incoming req see (Count)
system.mem_ctrls.wrQLenPdf::47                     55                       # What write queue length does an incoming req see (Count)
system.mem_ctrls.wrQLenPdf::48                     60                       # What write queue length does an incoming req see (Count)
system.mem_ctrls.wrQLenPdf::49                     49                       # What write queue length does an incoming req see (Count)
system.mem_ctrls.wrQLenPdf::50                     40                       # What write queue length does an incoming req see (Count)
system.mem_ctrls.wrQLenPdf::51                     40                       # What write queue length does an incoming req see (Count)
system.mem_ctrls.wrQLenPdf::52                     20                       # What write queue length does an incoming req see (Count)
system.mem_ctrls.wrQLenPdf::53                     21                       # What write queue length does an incoming req see (Count)
system.mem_ctrls.wrQLenPdf::54                     17                       # What write queue length does an incoming req see (Count)
system.mem_ctrls.wrQLenPdf::55                     16                       # What write queue length does an incoming req see (Count)
system.mem_ctrls.wrQLenPdf::56                     23                       # What write queue length does an incoming req see (Count)
system.mem_ctrls.wrQLenPdf::57                     25                       # What write queue length does an incoming req see (Count)
system.mem_ctrls.wrQLenPdf::58                     23                       # What write queue length does an incoming req see (Count)
system.mem_ctrls.wrQLenPdf::59                     27                       # What write queue length does an incoming req see (Count)
system.mem_ctrls.wrQLenPdf::60                     28                       # What write queue length does an incoming req see (Count)
system.mem_ctrls.wrQLenPdf::61                     43                       # What write queue length does an incoming req see (Count)
system.mem_ctrls.wrQLenPdf::62                     37                       # What write queue length does an incoming req see (Count)
system.mem_ctrls.wrQLenPdf::63                     33                       # What write queue length does an incoming req see (Count)
system.mem_ctrls.rdPerTurnAround::samples          437                       # Reads before turning the bus around for writes (Count)
system.mem_ctrls.rdPerTurnAround::mean    1597.203661                       # Reads before turning the bus around for writes (Count)
system.mem_ctrls.rdPerTurnAround::stdev   3094.632424                       # Reads before turning the bus around for writes (Count)
system.mem_ctrls.rdPerTurnAround::0-511           362     82.84%     82.84% # Reads before turning the bus around for writes (Count)
system.mem_ctrls.rdPerTurnAround::1024-1535            2      0.46%     83.30% # Reads before turning the bus around for writes (Count)
system.mem_ctrls.rdPerTurnAround::1536-2047            1      0.23%     83.52% # Reads before turning the bus around for writes (Count)
system.mem_ctrls.rdPerTurnAround::5120-5631            1      0.23%     83.75% # Reads before turning the bus around for writes (Count)
system.mem_ctrls.rdPerTurnAround::6656-7167            1      0.23%     83.98% # Reads before turning the bus around for writes (Count)
system.mem_ctrls.rdPerTurnAround::7168-7679            6      1.37%     85.35% # Reads before turning the bus around for writes (Count)
system.mem_ctrls.rdPerTurnAround::7680-8191           11      2.52%     87.87% # Reads before turning the bus around for writes (Count)
[...]
system.mem_ctrls.dram.bwInstRead::cpu.inst      1668451                       # Instruction read bandwidth from this memory ((Byte/Second))
system.mem_ctrls.dram.bwInstRead::total       1668451                       # Instruction read bandwidth from this memory ((Byte/Second))
system.mem_ctrls.dram.bwWrite::writebacks     81589523                       # Write bandwidth from this memory ((Byte/Second))
system.mem_ctrls.dram.bwWrite::total         81589523                       # Write bandwidth from this memory ((Byte/Second))
system.mem_ctrls.dram.bwTotal::writebacks     81589523                       # Total bandwidth to/from this memory ((Byte/Second))
system.mem_ctrls.dram.bwTotal::cpu.inst       1668451                       # Total bandwidth to/from this memory ((Byte/Second))
system.mem_ctrls.dram.bwTotal::cpu.data     825693468                       # Total bandwidth to/from this memory ((Byte/Second))
system.mem_ctrls.dram.bwTotal::total        908951441                       # Total bandwidth to/from this memory ((Byte/Second))
system.mem_ctrls.dram.readBursts               697984                       # Number of DRAM read bursts (Count)
system.mem_ctrls.dram.writeBursts                9108                       # Number of DRAM write bursts (Count)
system.mem_ctrls.dram.perBankRdBursts::0        17608                       # Per bank write bursts (Count)
system.mem_ctrls.dram.perBankRdBursts::1        20102                       # Per bank write bursts (Count)
system.mem_ctrls.dram.perBankRdBursts::2         1679                       # Per bank write bursts (Count)
system.mem_ctrls.dram.perBankRdBursts::3        10502                       # Per bank write bursts (Count)
system.mem_ctrls.dram.perBankRdBursts::4        52238                       # Per bank write bursts (Count)
system.mem_ctrls.dram.perBankRdBursts::5       145308                       # Per bank write bursts (Count)
system.mem_ctrls.dram.perBankRdBursts::6       145306                       # Per bank write bursts (Count)
system.mem_ctrls.dram.perBankRdBursts::7       145110                       # Per bank write bursts (Count)
system.mem_ctrls.dram.perBankRdBursts::8       105141                       # Per bank write bursts (Count)
system.mem_ctrls.dram.perBankRdBursts::9         6025                       # Per bank write bursts (Count)
system.mem_ctrls.dram.perBankRdBursts::10         7019                       # Per bank write bursts (Count)
system.mem_ctrls.dram.perBankRdBursts::11         5080                       # Per bank write bursts (Count)
system.mem_ctrls.dram.perBankRdBursts::12        13832                       # Per bank write bursts (Count)
system.mem_ctrls.dram.perBankRdBursts::13        13571                       # Per bank write bursts (Count)
system.mem_ctrls.dram.perBankRdBursts::14          717                       # Per bank write bursts (Count)
system.mem_ctrls.dram.perBankRdBursts::15         8746                       # Per bank write bursts (Count)
system.mem_ctrls.dram.perBankWrBursts::0          388                       # Per bank write bursts (Count)
system.mem_ctrls.dram.perBankWrBursts::1          398                       # Per bank write bursts (Count)
system.mem_ctrls.dram.perBankWrBursts::2         1708                       # Per bank write bursts (Count)
system.mem_ctrls.dram.perBankWrBursts::3          348                       # Per bank write bursts (Count)
system.mem_ctrls.dram.perBankWrBursts::4          552                       # Per bank write bursts (Count)
system.mem_ctrls.dram.perBankWrBursts::5          602                       # Per bank write bursts (Count)
system.mem_ctrls.dram.perBankWrBursts::6          705                       # Per bank write bursts (Count)
system.mem_ctrls.dram.perBankWrBursts::7          549                       # Per bank write bursts (Count)
system.mem_ctrls.dram.perBankWrBursts::8          525                       # Per bank write bursts (Count)
system.mem_ctrls.dram.perBankWrBursts::9          554                       # Per bank write bursts (Count)
system.mem_ctrls.dram.perBankWrBursts::10          535                       # Per bank write bursts (Count)
system.mem_ctrls.dram.perBankWrBursts::11          553                       # Per bank write bursts (Count)
system.mem_ctrls.dram.perBankWrBursts::12          469                       # Per bank write bursts (Count)
system.mem_ctrls.dram.perBankWrBursts::13          401                       # Per bank write bursts (Count)
system.mem_ctrls.dram.perBankWrBursts::14          410                       # Per bank write bursts (Count)
system.mem_ctrls.dram.perBankWrBursts::15          411                       # Per bank write bursts (Count)
system.mem_ctrls.dram.totQLat              2862947000                       # Total ticks spent queuing (Tick)
system.mem_ctrls.dram.totBusLat            3489920000                       # Total ticks spent in databus transfers (Tick)
system.mem_ctrls.dram.totMemAccLat        15950147000                       # Total ticks spent from burst creation until serviced by the DRAM (Tick)
system.mem_ctrls.dram.avgQLat                 4101.74                       # Average queueing delay per DRAM burst ((Tick/Count))
system.mem_ctrls.dram.avgBusLat               5000.00                       # Average bus latency per DRAM burst ((Tick/Count))
system.mem_ctrls.dram.avgMemAccLat           22851.74                       # Average memory access latency per DRAM burst ((Tick/Count))
system.mem_ctrls.dram.readRowHits              626000                       # Number of row buffer hits during reads (Count)
system.mem_ctrls.dram.writeRowHits               8110                       # Number of row buffer hits during writes (Count)
system.mem_ctrls.dram.readRowHitRate            89.69                       # Row buffer hit rate for reads (Ratio)
system.mem_ctrls.dram.writeRowHitRate           89.04                       # Row buffer hit rate for writes (Ratio)
system.mem_ctrls.dram.bytesPerActivate::samples        72972                       # Bytes accessed per row activation (Byte)
system.mem_ctrls.dram.bytesPerActivate::mean   620.125199                       # Bytes accessed per row activation (Byte)
system.mem_ctrls.dram.bytesPerActivate::gmean   445.637344                       # Bytes accessed per row activation (Byte)
system.mem_ctrls.dram.bytesPerActivate::stdev   375.230691                       # Bytes accessed per row activation (Byte)
system.mem_ctrls.dram.bytesPerActivate::0-127         9110     12.48%     12.48% # Bytes accessed per row activation (Byte)
system.mem_ctrls.dram.bytesPerActivate::128-255         7175      9.83%     22.32% # Bytes accessed per row activation (Byte)
system.mem_ctrls.dram.bytesPerActivate::256-383         7198      9.86%     32.18% # Bytes accessed per row activation (Byte)
system.mem_ctrls.dram.bytesPerActivate::384-511         6291      8.62%     40.80% # Bytes accessed per row activation (Byte)
system.mem_ctrls.dram.bytesPerActivate::512-639         4169      5.71%     46.52% # Bytes accessed per row activation (Byte)
system.mem_ctrls.dram.bytesPerActivate::640-767         5668      7.77%     54.28% # Bytes accessed per row activation (Byte)
system.mem_ctrls.dram.bytesPerActivate::768-895         4372      5.99%     60.27% # Bytes accessed per row activation (Byte)
system.mem_ctrls.dram.bytesPerActivate::896-1023         1975      2.71%     62.98% # Bytes accessed per row activation (Byte)
system.mem_ctrls.dram.bytesPerActivate::1024-1151        27014     37.02%    100.00% # Bytes accessed per row activation (Byte)
system.mem_ctrls.dram.bytesPerActivate::total        72972                       # Bytes accessed per row activation (Byte)
system.mem_ctrls.dram.bytesRead              44670976                       # Total bytes read (Byte)
system.mem_ctrls.dram.bytesWritten             582912                       # Total bytes written (Byte)
system.mem_ctrls.dram.avgRdBW              726.936193                       # Average DRAM read bandwidth in MiBytes/s ((Byte/Second))
system.mem_ctrls.dram.avgWrBW                9.485797                       # Average DRAM write bandwidth in MiBytes/s ((Byte/Second))
system.mem_ctrls.dram.peakBW                 12800.00                       # Theoretical peak bandwidth in MiByte/s ((Byte/Second))
system.mem_ctrls.dram.busUtil                    5.75                       # Data bus utilization in percentage (Ratio)
system.mem_ctrls.dram.busUtilRead                5.68                       # Data bus utilization in percentage for reads (Ratio)
system.mem_ctrls.dram.busUtilWrite               0.07                       # Data bus utilization in percentage for writes (Ratio)
system.mem_ctrls.dram.pageHitRate               89.68                       # Row buffer hit rate, read and write combined (Ratio)
system.mem_ctrls.dram.power_state.pwrStateResidencyTicks::UNDEFINED  61451027500                       # Cumulative time (in ticks) in various power states (Tick)
system.mem_ctrls.dram.rank0.actEnergy       356842920                       # Energy for activate commands per rank (pJ) (Joule)
system.mem_ctrls.dram.rank0.preEnergy       189651330                       # Energy for precharge commands per rank (pJ) (Joule)
system.mem_ctrls.dram.rank0.readEnergy     3840270420                       # Energy for read commands per rank (pJ) (Joule)
system.mem_ctrls.dram.rank0.writeEnergy      27405000                       # Energy for write commands per rank (pJ) (Joule)
system.mem_ctrls.dram.rank0.refreshEnergy 4850738880.000001                       # Energy for refresh commands per rank (pJ) (Joule)
system.mem_ctrls.dram.rank0.actBackEnergy  27262300860                       # Energy for active background per rank (pJ) (Joule)
system.mem_ctrls.dram.rank0.preBackEnergy    639467520                       # Energy for precharge background per rank (pJ) (Joule)
system.mem_ctrls.dram.rank0.actPowerDownEnergy            0                       # Energy for active power-down per rank (pJ) (Joule)
system.mem_ctrls.dram.rank0.prePowerDownEnergy            0                       # Energy for precharge power-down per rank (pJ) (Joule)
system.mem_ctrls.dram.rank0.selfRefreshEnergy            0                       # Energy for self refresh per rank (pJ) (Joule)
system.mem_ctrls.dram.rank0.totalEnergy   37166676930                       # Total energy per rank (pJ) (Joule)
system.mem_ctrls.dram.rank0.averagePower   604.817827                       # Core power per rank (mW) (Watt)
system.mem_ctrls.dram.rank0.totalIdleTime            0                       # Total Idle time Per DRAM Rank (Tick)
system.mem_ctrls.dram.rank0.pwrStateTime::IDLE   1435755500                       # Time in different power states (Tick)
system.mem_ctrls.dram.rank0.pwrStateTime::REF   2051920000                       # Time in different power states (Tick)
system.mem_ctrls.dram.rank0.pwrStateTime::SREF            0                       # Time in different power states (Tick)
system.mem_ctrls.dram.rank0.pwrStateTime::PRE_PDN            0                       # Time in different power states (Tick)
system.mem_ctrls.dram.rank0.pwrStateTime::ACT  57963352000                       # Time in different power states (Tick)
system.mem_ctrls.dram.rank0.pwrStateTime::ACT_PDN            0                       # Time in different power states (Tick)
system.mem_ctrls.dram.rank1.actEnergy       164248560                       # Energy for activate commands per rank (pJ) (Joule)
system.mem_ctrls.dram.rank1.preEnergy        87277410                       # Energy for precharge commands per rank (pJ) (Joule)
system.mem_ctrls.dram.rank1.readEnergy     1143335340                       # Energy for read commands per rank (pJ) (Joule)
system.mem_ctrls.dram.rank1.writeEnergy      20138760                       # Energy for write commands per rank (pJ) (Joule)
system.mem_ctrls.dram.rank1.refreshEnergy 4850738880.000001                       # Energy for refresh commands per rank (pJ) (Joule)
system.mem_ctrls.dram.rank1.actBackEnergy  23252951640                       # Energy for active background per rank (pJ) (Joule)
system.mem_ctrls.dram.rank1.preBackEnergy   4015761600                       # Energy for precharge background per rank (pJ) (Joule)
system.mem_ctrls.dram.rank1.actPowerDownEnergy            0                       # Energy for active power-down per rank (pJ) (Joule)
system.mem_ctrls.dram.rank1.prePowerDownEnergy            0                       # Energy for precharge power-down per rank (pJ) (Joule)
system.mem_ctrls.dram.rank1.selfRefreshEnergy            0                       # Energy for self refresh per rank (pJ) (Joule)
system.mem_ctrls.dram.rank1.totalEnergy   33534452190                       # Total energy per rank (pJ) (Joule)
system.mem_ctrls.dram.rank1.averagePower   545.710195                       # Core power per rank (mW) (Watt)
system.mem_ctrls.dram.rank1.totalIdleTime            0                       # Total Idle time Per DRAM Rank (Tick)
system.mem_ctrls.dram.rank1.pwrStateTime::IDLE  10230415250                       # Time in different power states (Tick)
system.mem_ctrls.dram.rank1.pwrStateTime::REF   2051920000                       # Time in different power states (Tick)
system.mem_ctrls.dram.rank1.pwrStateTime::SREF            0                       # Time in different power states (Tick)
system.mem_ctrls.dram.rank1.pwrStateTime::PRE_PDN            0                       # Time in different power states (Tick)
system.mem_ctrls.dram.rank1.pwrStateTime::ACT  49168692250                       # Time in different power states (Tick)
system.mem_ctrls.dram.rank1.pwrStateTime::ACT_PDN            0                       # Time in different power states (Tick)
system.mem_ctrls.power_state.pwrStateResidencyTicks::UNDEFINED  61451027500                       # Cumulative time (in ticks) in various power states (Tick)
system.membus.transDist::ReadResp              734385                       # Transaction distribution (Count)
system.membus.transDist::WritebackDirty         78340                       # Transaction distribution (Count)
system.membus.transDist::WritebackClean          1115                       # Transaction distribution (Count)
system.membus.transDist::CleanEvict            716509                       # Transaction distribution (Count)
system.membus.transDist::ReadExReq              60024                       # Transaction distribution (Count)
system.membus.transDist::ReadExResp             60024                       # Transaction distribution (Count)
system.membus.transDist::ReadCleanReq            1602                       # Transaction distribution (Count)
system.membus.transDist::ReadSharedReq         732784                       # Transaction distribution (Count)
system.membus.transDist::InvalidateReq           2073                       # Transaction distribution (Count)
system.membus.pktCount_system.cpu.icache.mem_side_port::system.mem_ctrls.port         4318                       # Packet count per connected requestor and responder (Count)
system.membus.pktCount_system.cpu.dcache.mem_side_port::system.mem_ctrls.port      2382538                       # Packet count per connected requestor and responder (Count)
system.membus.pktCount::total                 2386856                       # Packet count per connected requestor and responder (Count)
system.membus.pktSize_system.cpu.icache.mem_side_port::system.mem_ctrls.port       173824                       # Cumulative packet size per connected requestor and responder (Byte)
system.membus.pktSize_system.cpu.dcache.mem_side_port::system.mem_ctrls.port     55753472                       # Cumulative packet size per connected requestor and responder (Byte)
system.membus.pktSize::total                 55927296                       # Cumulative packet size per connected requestor and responder (Byte)
system.membus.snoops                                0                       # Total snoops (Count)
system.membus.snoopTraffic                          0                       # Total snoop traffic (Byte)
system.membus.snoopFanout::samples             796483                       # Request fanout histogram (Count)
system.membus.snoopFanout::mean              0.000003                       # Request fanout histogram (Count)
system.membus.snoopFanout::stdev             0.001585                       # Request fanout histogram (Count)
system.membus.snoopFanout::underflows               0      0.00%      0.00% # Request fanout histogram (Count)
system.membus.snoopFanout::0                   796481    100.00%    100.00% # Request fanout histogram (Count)
system.membus.snoopFanout::1                        2      0.00%    100.00% # Request fanout histogram (Count)
system.membus.snoopFanout::2                        0      0.00%    100.00% # Request fanout histogram (Count)
system.membus.snoopFanout::overflows                0      0.00%    100.00% # Request fanout histogram (Count)
system.membus.snoopFanout::min_value                0                       # Request fanout histogram (Count)
system.membus.snoopFanout::max_value                1                       # Request fanout histogram (Count)
system.membus.snoopFanout::total               796483                       # Request fanout histogram (Count)
system.membus.power_state.pwrStateResidencyTicks::UNDEFINED  61451027500                       # Cumulative time (in ticks) in various power states (Tick)
system.membus.reqLayer0.occupancy          1974801750                       # Layer occupancy (ticks) (Tick)
system.membus.reqLayer0.utilization               0.0                       # Layer utilization (Ratio)
system.membus.respLayer1.occupancy            8369750                       # Layer occupancy (ticks) (Tick)
system.membus.respLayer1.utilization              0.0                       # Layer utilization (Ratio)
system.membus.respLayer2.occupancy         4156612500                       # Layer occupancy (ticks) (Tick)
system.membus.respLayer2.utilization              0.1                       # Layer utilization (Ratio)
system.membus.snoop_filter.totRequests        1592455                       # Total number of requests made to the snoop filter. (Count)
system.membus.snoop_filter.hitSingleRequests       795973                       # Number of requests hitting in the snoop filter with a single holder of the requested data. (Count)
system.membus.snoop_filter.hitMultiRequests            1                       # Number of requests hitting in the snoop filter with multiple (>1) holders of the requested data. (Count)
system.membus.snoop_filter.totSnoops                0                       # Total number of snoops made to the snoop filter. (Count)
system.membus.snoop_filter.hitSingleSnoops            0                       # Number of snoops hitting in the snoop filter with a single holder of the requested data. (Count)
system.membus.snoop_filter.hitMultiSnoops            0                       # Number of snoops hitting in the snoop filter with multiple (>1) holders of the requested data. (Count)
system.voltage_domain.voltage                       1                       # Voltage in Volts (Volt)
system.workload.inst.arm                            0                       # number of arm instructions executed (Count)
system.workload.inst.quiesce                        0                       # number of quiesce instructions executed (Count)
system.cpu.idleCycles                        75492509                       # Total number of cycles that the object has spent stopped (Unspecified)
system.cpu.tickCycles                        47409546                       # Number of cycles that the object actually ticked (Unspecified)

---------- End Simulation Statistics   ----------
