
---------- Begin Simulation Statistics ----------
simSeconds                                   0.022515                       # Number of seconds simulated (Second)
simTicks                                  22514738000                       # Number of ticks simulated (Tick)
finalTick                                 22514738000                       # Number of ticks from beginning of simulation (restored from checkpoints and never reset) (Tick)
simFreq                                  1000000000000                       # The number of ticks per simulated second ((Tick/Second))
hostSeconds                                     59.77                       # Real time elapsed on the host (Second)
hostTickRate                                376714238                       # The number of ticks simulated per host second (ticks/s) ((Tick/Second))
hostMemory                                     672460                       # Number of bytes of host memory used (Byte)
simInsts                                     37273609                       # Number of instructions simulated (Count)
simOps                                       38427141                       # Number of ops (including micro ops) simulated (Count)
hostInstRate                                   623658                       # Simulator instruction rate (inst/s) ((Count/Second))
hostOpRate                                     642958                       # Simulator op (including micro ops) rate (op/s) ((Count/Second))
system.clk_domain.clock                          1000                       # Clock period in ticks (Tick)
system.cpu.numCycles                         45029477                       # Number of cpu cycles simulated (Cycle)
system.cpu.numWorkItemsStarted                      0                       # Number of work items this cpu started (Count)
system.cpu.numWorkItemsCompleted                    0                       # Number of work items this cpu completed (Count)
system.cpu.instsAdded                        41804527                       # Number of instructions added to the IQ (excludes non-spec) (Count)
system.cpu.nonSpecInstsAdded                      263                       # Number of non-speculative instructions added to the IQ (Count)
system.cpu.instsIssued                       40934190                       # Number of instructions issued (Count)
system.cpu.squashedInstsIssued                   4832                       # Number of squashed instructions issued (Count)
system.cpu.squashedInstsExamined              3377648                       # Number of squashed instructions iterated over during squash; mainly for profiling (Count)
system.cpu.squashedOperandsExamined           2485822                       # Number of squashed operands that are examined and possibly removed from graph (Count)
system.cpu.squashedNonSpecRemoved                  50                       # Number of squashed non-spec instructions that were removed (Count)
system.cpu.numIssuedDist::samples            44973817                       # Number of insts issued each cycle (Count)
system.cpu.numIssuedDist::mean               0.910178                       # Number of insts issued each cycle (Count)
system.cpu.numIssuedDist::stdev              1.473001                       # Number of insts issued each cycle (Count)
system.cpu.numIssuedDist::underflows                0      0.00%      0.00% # Number of insts issued each cycle (Count)
system.cpu.numIssuedDist::0                  27529465     61.21%     61.21% # Number of insts issued each cycle (Count)
system.cpu.numIssuedDist::1                   6820633     15.17%     76.38% # Number of insts issued each cycle (Count)
system.cpu.numIssuedDist::2                   4109211      9.14%     85.51% # Number of insts issued each cycle (Count)
system.cpu.numIssuedDist::3                   2967096      6.60%     92.11% # Number of insts issued each cycle (Count)
system.cpu.numIssuedDist::4                   1779220      3.96%     96.07% # Number of insts issued each cycle (Count)
system.cpu.numIssuedDist::5                   1049577      2.33%     98.40% # Number of insts issued each cycle (Count)
system.cpu.numIssuedDist::6                    488261      1.09%     99.49% # Number of insts issued each cycle (Count)
system.cpu.numIssuedDist::7                    143316      0.32%     99.81% # Number of insts issued each cycle (Count)
system.cpu.numIssuedDist::8                     87038      0.19%    100.00% # Number of insts issued each cycle (Count)
system.cpu.numIssuedDist::overflows                 0      0.00%    100.00% # Number of insts issued each cycle (Count)
system.cpu.numIssuedDist::min_value                 0                       # Number of insts issued each cycle (Count)
system.cpu.numIssuedDist::max_value                 8                       # Number of insts issued each cycle (Count)
system.cpu.numIssuedDist::total              44973817                       # Number of insts issued each cycle (Count)
system.cpu.statFuBusy::No_OpClass                   0      0.00%      0.00% # attempts to use FU when none available (Count)
system.cpu.statFuBusy::IntAlu                   51642      9.35%      9.35% # attempts to use FU when none available (Count)
system.cpu.statFuBusy::IntMult                   2478      0.45%      9.80% # attempts to use FU when none available (Count)
system.cpu.statFuBusy::IntDiv                       0      0.00%      9.80% # attempts to use FU when none available (Count)
system.cpu.statFuBusy::FloatAdd                     0      0.00%      9.80% # attempts to use FU when none available (Count)
system.cpu.statFuBusy::FloatCmp                     0      0.00%      9.80% # attempts to use FU when none available (Count)
system.cpu.statFuBusy::FloatCvt                     0      0.00%      9.80% # attempts to use FU when none available (Count)
system.cpu.statFuBusy::FloatMult                    0      0.00%      9.80% # attempts to use FU when none available (Count)
system.cpu.statFuBusy::FloatMultAcc                 0      0.00%      9.80% # attempts to use FU when none available (Count)
system.cpu.statFuBusy::FloatDiv                     0      0.00%      9.80% # attempts to use FU when none available (Count)
system.cpu.statFuBusy::FloatMisc                    0      0.00%      9.80% # attempts to use FU when none available (Count)
system.cpu.statFuBusy::FloatSqrt                    0      0.00%      9.80% # attempts to use FU when none available (Count)
system.cpu.statFuBusy::SimdAdd                      0      0.00%      9.80% # attempts to use FU when none available (Count)
system.cpu.statFuBusy::SimdAddAcc                   0      0.00%      9.80% # attempts to use FU when none available (Count)
system.cpu.statFuBusy::SimdAlu                   1991      0.36%     10.16% # attempts to use FU when none available (Count)
system.cpu.statFuBusy::SimdCmp                   2108      0.38%     10.54% # attempts to use FU when none available (Count)
system.cpu.statFuBusy::SimdCvt                      0      0.00%     10.54% # attempts to use FU when none available (Count)
system.cpu.statFuBusy::SimdMisc                     0      0.00%     10.54% # attempts to use FU when none available (Count)
system.cpu.statFuBusy::SimdMult                     0      0.00%     10.54% # attempts to use FU when none available (Count)
system.cpu.statFuBusy::SimdMultAcc                  0      0.00%     10.54% # attempts to use FU when none available (Count)
system.cpu.statFuBusy::SimdShift                    0      0.00%     10.54% # attempts to use FU when none available (Count)
system.cpu.statFuBusy::SimdShiftAcc                 0      0.00%     10.54% # attempts to use FU when none available (Count)
system.cpu.statFuBusy::SimdDiv                      0      0.00%     10.54% # attempts to use FU when none available (Count)
system.cpu.statFuBusy::SimdSqrt                     0      0.00%     10.54% # attempts to use FU when none available (Count)
system.cpu.statFuBusy::SimdFloatAdd                 0      0.00%     10.54% # attempts to use FU when none available (Count)
system.cpu.statFuBusy::SimdFloatAlu                 0      0.00%     10.54% # attempts to use FU when none available (Count)
system.cpu.statFuBusy::SimdFloatCmp                 0      0.00%     10.54% # attempts to use FU when none available (Count)
system.cpu.statFuBusy::SimdFloatCvt                 0      0.00%     10.54% # attempts to use FU when none available (Count)
system.cpu.statFuBusy::SimdFloatDiv                 0      0.00%     10.54% # attempts to use FU when none available (Count)
system.cpu.statFuBusy::SimdFloatMisc                0      0.00%     10.54% # attempts to use FU when none available (Count)
system.cpu.statFuBusy::SimdFloatMult                0      0.00%     10.54% # attempts to use FU when none available (Count)
system.cpu.statFuBusy::SimdFloatMultAcc             0      0.00%     10.54% # attempts to use FU when none available (Count)
system.cpu.statFuBusy::SimdFloatSqrt                0      0.00%     10.54% # attempts to use FU when none available (Count)
system.cpu.statFuBusy::SimdReduceAdd                0      0.00%     10.54% # attempts to use FU when none available (Count)
system.cpu.statFuBusy::SimdReduceAlu                0      0.00%     10.54% # attempts to use FU when none available (Count)
system.cpu.statFuBusy::SimdReduceCmp                0      0.00%     10.54% # attempts to use FU when none available (Count)
system.cpu.statFuBusy::SimdFloatReduceAdd            0      0.00%     10.54% # attempts to use FU when none available (Count)
system.cpu.statFuBusy::SimdFloatReduceCmp            0      0.00%     10.54% # attempts to use FU when none available (Count)
system.cpu.statFuBusy::SimdAes                      0      0.00%     10.54% # attempts to use FU when none available (Count)
system.cpu.statFuBusy::SimdAesMix                   0      0.00%     10.54% # attempts to use FU when none available (Count)
system.cpu.statFuBusy::SimdSha1Hash                 0      0.00%     10.54% # attempts to use FU when none available (Count)
system.cpu.statFuBusy::SimdSha1Hash2                0      0.00%     10.54% # attempts to use FU when none available (Count)
system.cpu.statFuBusy::SimdSha256Hash               0      0.00%     10.54% # attempts to use FU when none available (Count)
system.cpu.statFuBusy::SimdSha256Hash2              0      0.00%     10.54% # attempts to use FU when none available (Count)
system.cpu.statFuBusy::SimdShaSigma2                0      0.00%     10.54% # attempts to use FU when none available (Count)
system.cpu.statFuBusy::SimdShaSigma3                0      0.00%     10.54% # attempts to use FU when none available (Count)
system.cpu.statFuBusy::SimdPredAlu                  0      0.00%     10.54% # attempts to use FU when none available (Count)
system.cpu.statFuBusy::MemRead                 444463     80.50%     91.04% # attempts to use FU when none available (Count)
system.cpu.statFuBusy::MemWrite                 49469      8.96%    100.00% # attempts to use FU when none available (Count)
system.cpu.statFuBusy::FloatMemRead                 0      0.00%    100.00% # attempts to use FU when none available (Count)
system.cpu.statFuBusy::FloatMemWrite                0      0.00%    100.00% # attempts to use FU when none available (Count)
system.cpu.statFuBusy::IprAccess                    0      0.00%    100.00% # attempts to use FU when none available (Count)
system.cpu.statFuBusy::InstPrefetch                 0      0.00%    100.00% # attempts to use FU when none available (Count)
system.cpu.statIssuedInstType_0::No_OpClass        13674      0.03%      0.03% # Number of instructions issued per FU type, per thread (Count)
system.cpu.statIssuedInstType_0::IntAlu      23668899     57.82%     57.86% # Number of instructions issued per FU type, per thread (Count)
system.cpu.statIssuedInstType_0::IntMult        43879      0.11%     57.96% # Number of instructions issued per FU type, per thread (Count)
system.cpu.statIssuedInstType_0::IntDiv         20667      0.05%     58.01% # Number of instructions issued per FU type, per thread (Count)
system.cpu.statIssuedInstType_0::FloatAdd      1160182      2.83%     60.85% # Number of instructions issued per FU type, per thread (Count)
system.cpu.statIssuedInstType_0::FloatCmp       569353      1.39%     62.24% # Number of instructions issued per FU type, per thread (Count)
system.cpu.statIssuedInstType_0::FloatCvt            0      0.00%     62.24% # Number of instructions issued per FU type, per thread (Count)
system.cpu.statIssuedInstType_0::FloatMult            0      0.00%     62.24% # Number of instructions issued per FU type, per thread (Count)
system.cpu.statIssuedInstType_0::FloatMultAcc            0      0.00%     62.24% # Number of instructions issued per FU type, per thread (Count)
system.cpu.statIssuedInstType_0::FloatDiv            0      0.00%     62.24% # Number of instructions issued per FU type, per thread (Count)
system.cpu.statIssuedInstType_0::FloatMisc        30344      0.07%     62.31% # Number of instructions issued per FU type, per thread (Count)
system.cpu.statIssuedInstType_0::FloatSqrt            0      0.00%     62.31% # Number of instructions issued per FU type, per thread (Count)
system.cpu.statIssuedInstType_0::SimdAdd        32359      0.08%     62.39% # Number of instructions issued per FU type, per thread (Count)
system.cpu.statIssuedInstType_0::SimdAddAcc            0      0.00%     62.39% # Number of instructions issued per FU type, per thread (Count)
system.cpu.statIssuedInstType_0::SimdAlu        59652      0.15%     62.54% # Number of instructions issued per FU type, per thread (Count)
system.cpu.statIssuedInstType_0::SimdCmp        54592      0.13%     62.67% # Number of instructions issued per FU type, per thread (Count)
system.cpu.statIssuedInstType_0::SimdCvt            0      0.00%     62.67% # Number of instructions issued per FU type, per thread (Count)
system.cpu.statIssuedInstType_0::SimdMisc        36417      0.09%     62.76% # Number of instructions issued per FU type, per thread (Count)
system.cpu.statIssuedInstType_0::SimdMult            0      0.00%     62.76% # Number of instructions issued per FU type, per thread (Count)
system.cpu.statIssuedInstType_0::SimdMultAcc            0      0.00%     62.76% # Number of instructions issued per FU type, per thread (Count)
system.cpu.statIssuedInstType_0::SimdShift            0      0.00%     62.76% # Number of instructions issued per FU type, per thread (Count)
system.cpu.statIssuedInstType_0::SimdShiftAcc            0      0.00%     62.76% # Number of instructions issued per FU type, per thread (Count)
system.cpu.statIssuedInstType_0::SimdDiv            0      0.00%     62.76% # Number of instructions issued per FU type, per thread (Count)
system.cpu.statIssuedInstType_0::SimdSqrt            0      0.00%     62.76% # Number of instructions issued per FU type, per thread (Count)
system.cpu.statIssuedInstType_0::SimdFloatAdd            0      0.00%     62.76% # Number of instructions issued per FU type, per thread (Count)
system.cpu.statIssuedInstType_0::SimdFloatAlu            0      0.00%     62.76% # Number of instructions issued per FU type, per thread (Count)
system.cpu.statIssuedInstType_0::SimdFloatCmp            0      0.00%     62.76% # Number of instructions issued per FU type, per thread (Count)
system.cpu.statIssuedInstType_0::SimdFloatCvt            0      0.00%     62.76% # Number of instructions issued per FU type, per thread (Count)
system.cpu.statIssuedInstType_0::SimdFloatDiv            0      0.00%     62.76% # Number of instructions issued per FU type, per thread (Count)
system.cpu.statIssuedInstType_0::SimdFloatMisc            0      0.00%     62.76% # Number of instructions issued per FU type, per thread (Count)
system.cpu.statIssuedInstType_0::SimdFloatMult            0      0.00%     62.76% # Number of instructions issued per FU type, per thread (Count)
system.cpu.statIssuedInstType_0::SimdFloatMultAcc            0      0.00%     62.76% # Number of instructions issued per FU type, per thread (Count)
system.cpu.statIssuedInstType_0::SimdFloatSqrt            0      0.00%     62.76% # Number of instructions issued per FU type, per thread (Count)
system.cpu.statIssuedInstType_0::SimdReduceAdd            0      0.00%     62.76% # Number of instructions issued per FU type, per thread (Count)
system.cpu.statIssuedInstType_0::SimdReduceAlu            0      0.00%     62.76% # Number of instructions issued per FU type, per thread (Count)
system.cpu.statIssuedInstType_0::SimdReduceCmp            0      0.00%     62.76% # Number of instructions issued per FU type, per thread (Count)
system.cpu.statIssuedInstType_0::SimdFloatReduceAdd            0      0.00%     62.76% # Number of instructions issued per FU type, per thread (Count)
system.cpu.statIssuedInstType_0::SimdFloatReduceCmp            0      0.00%     62.76% # Number of instructions issued per FU type, per thread (Count)
system.cpu.statIssuedInstType_0::SimdAes            0      0.00%     62.76% # Number of instructions issued per FU type, per thread (Count)
system.cpu.statIssuedInstType_0::SimdAesMix            0      0.00%     62.76% # Number of instructions issued per FU type, per thread (Count)
system.cpu.statIssuedInstType_0::SimdSha1Hash            0      0.00%     62.76% # Number of instructions issued per FU type, per thread (Count)
system.cpu.statIssuedInstType_0::SimdSha1Hash2            0      0.00%     62.76% # Number of instructions issued per FU type, per thread (Count)
system.cpu.statIssuedInstType_0::SimdSha256Hash            0      0.00%     62.76% # Number of instructions issued per FU type, per thread (Count)
system.cpu.statIssuedInstType_0::SimdSha256Hash2            0      0.00%     62.76% # Number of instructions issued per FU type, per thread (Count)
system.cpu.statIssuedInstType_0::SimdShaSigma2            0      0.00%     62.76% # Number of instructions issued per FU type, per thread (Count)
system.cpu.statIssuedInstType_0::SimdShaSigma3            0      0.00%     62.76% # Number of instructions issued per FU type, per thread (Count)
system.cpu.statIssuedInstType_0::SimdPredAlu            0      0.00%     62.76% # Number of instructions issued per FU type, per thread (Count)
system.cpu.statIssuedInstType_0::MemRead     12828523     31.34%     94.10% # Number of instructions issued per FU type, per thread (Count)
system.cpu.statIssuedInstType_0::MemWrite      2415649      5.90%    100.00% # Number of instructions issued per FU type, per thread (Count)
system.cpu.statIssuedInstType_0::FloatMemRead            0      0.00%    100.00% # Number of instructions issued per FU type, per thread (Count)
system.cpu.statIssuedInstType_0::FloatMemWrite            0      0.00%    100.00% # Number of instructions issued per FU type, per thread (Count)
system.cpu.statIssuedInstType_0::IprAccess            0      0.00%    100.00% # Number of instructions issued per FU type, per thread (Count)
system.cpu.statIssuedInstType_0::InstPrefetch            0      0.00%    100.00% # Number of instructions issued per FU type, per thread (Count)
system.cpu.statIssuedInstType_0::total       40934190                       # Number of instructions issued per FU type, per thread (Count)
system.cpu.issueRate                         0.909053                       # Inst issue rate ((Count/Cycle))
system.cpu.fuBusy                              552151                       # FU busy when requested (Count)
system.cpu.fuBusyRate                        0.013489                       # FU busy rate (busy events/executed inst) ((Count/Count))
system.cpu.intInstQueueReads                116013997                       # Number of integer instruction queue reads (Count)
system.cpu.intInstQueueWrites                38820136                       # Number of integer instruction queue writes (Count)
system.cpu.intInstQueueWakeupAccesses        34963915                       # Number of integer instruction queue wakeup accesses (Count)
system.cpu.fpInstQueueReads                         0                       # Number of floating instruction queue reads (Count)
system.cpu.fpInstQueueWrites                        0                       # Number of floating instruction queue writes (Count)
system.cpu.fpInstQueueWakeupAccesses                0                       # Number of floating instruction queue wakeup accesses (Count)
system.cpu.vecInstQueueReads                 11385183                       # Number of vector instruction queue reads (Count)
system.cpu.vecInstQueueWrites                 6362853                       # Number of vector instruction queue writes (Count)
system.cpu.vecInstQueueWakeupAccesses         5643747                       # Number of vector instruction queue wakeup accesses (Count)
system.cpu.intAluAccesses                    35788967                       # Number of integer alu accesses (Count)
system.cpu.fpAluAccesses                            0                       # Number of floating point alu accesses (Count)
system.cpu.vecAluAccesses                     5683700                       # Number of vector alu accesses (Count)
system.cpu.numInsts                          40814074                       # Number of executed instructions (Count)
system.cpu.numLoadInsts                      12805744                       # Number of load instructions executed (Count)
system.cpu.numSquashedInsts                    120116                       # Number of squashed instructions skipped in execute (Count)
system.cpu.numSwp                                   0                       # Number of swp insts executed (Count)
system.cpu.numNop                               26021                       # Number of nop insts executed (Count)
system.cpu.numRefs                           15207435                       # Number of memory reference insts executed (Count)
system.cpu.numBranches                        3469516                       # Number of branches executed (Count)
system.cpu.numStoreInsts                      2401691                       # Number of stores executed (Count)
system.cpu.numRate                           0.906386                       # Inst execution rate ((Count/Cycle))
system.cpu.timesIdled                             737                       # Number of times that the entire CPU went into an idle state and unscheduled itself (Count)
system.cpu.idleCycles                           55660                       # Total number of cycles that the CPU has spent unscheduled due to idling (Cycle)
system.cpu.committedInsts                    37273609                       # Number of Instructions Simulated (Count)
system.cpu.committedOps                      38427141                       # Number of Ops (including micro ops) Simulated (Count)
system.cpu.cpi                               1.208079                       # CPI: Cycles Per Instruction ((Cycle/Count))
system.cpu.totalCpi                          1.208079                       # CPI: Total CPI of All Threads ((Cycle/Count))
system.cpu.ipc                               0.827760                       # IPC: Instructions Per Cycle ((Count/Cycle))
system.cpu.totalIpc                          0.827760                       # IPC: Total IPC of All Threads ((Count/Cycle))
system.cpu.intRegfileReads                   44280766                       # Number of integer regfile reads (Count)
system.cpu.intRegfileWrites                  30026105                       # Number of integer regfile writes (Count)
system.cpu.vecRegfileReads                    4426027                       # number of vector regfile reads (Count)
system.cpu.vecRegfileWrites                   4429453                       # number of vector regfile writes (Count)
system.cpu.ccRegfileReads                     9126930                       # number of cc regfile reads (Count)
system.cpu.ccRegfileWrites                    9602944                       # number of cc regfile writes (Count)
system.cpu.miscRegfileReads                  89759768                       # number of misc regfile reads (Count)
system.cpu.miscRegfileWrites                  1724966                       # number of misc regfile writes (Count)
system.cpu.MemDepUnit__0.insertedLoads       12935876                       # Number of loads inserted to the mem dependence unit. (Count)
system.cpu.MemDepUnit__0.insertedStores       2480778                       # Number of stores inserted to the mem dependence unit. (Count)
system.cpu.MemDepUnit__0.conflictingLoads      3289636                       # Number of conflicting loads. (Count)
system.cpu.MemDepUnit__0.conflictingStores       652046                       # Number of conflicting stores. (Count)
system.cpu.MemDepUnit__1.insertedLoads              0                       # Number of loads inserted to the mem dependence unit. (Count)
system.cpu.MemDepUnit__1.insertedStores             0                       # Number of stores inserted to the mem dependence unit. (Count)
system.cpu.MemDepUnit__1.conflictingLoads            0                       # Number of conflicting loads. (Count)
system.cpu.MemDepUnit__1.conflictingStores            0                       # Number of conflicting stores. (Count)
system.cpu.MemDepUnit__2.insertedLoads              0                       # Number of loads inserted to the mem dependence unit. (Count)
system.cpu.MemDepUnit__2.insertedStores             0                       # Number of stores inserted to the mem dependence unit. (Count)
system.cpu.MemDepUnit__2.conflictingLoads            0                       # Number of conflicting loads. (Count)
system.cpu.MemDepUnit__2.conflictingStores            0                       # Number of conflicting stores. (Count)
system.cpu.MemDepUnit__3.insertedLoads              0                       # Number of loads inserted to the mem dependence unit. (Count)
system.cpu.MemDepUnit__3.insertedStores             0                       # Number of stores inserted to the mem dependence unit. (Count)
system.cpu.MemDepUnit__3.conflictingLoads            0                       # Number of conflicting loads. (Count)
system.cpu.MemDepUnit__3.conflictingStores            0                       # Number of conflicting stores. (Count)
system.cpu.branchPred.lookups                 3737496                       # Number of BP lookups (Count)
system.cpu.branchPred.condPredicted           3263263                       # Number of conditional branches predicted (Count)
system.cpu.branchPred.condIncorrect             74859                       # Number of conditional branches incorrect (Count)
system.cpu.branchPred.BTBLookups              2682302                       # Number of BTB lookups (Count)
system.cpu.branchPred.BTBHits                 2679998                       # Number of BTB hits (Count)
system.cpu.branchPred.BTBHitRatio            0.999141                       # BTB Hit Ratio (Ratio)
system.cpu.branchPred.RASUsed                  150167                       # Number of times the RAS was used to get a target. (Count)
system.cpu.branchPred.RASIncorrect                  4                       # Number of incorrect RAS predictions. (Count)
system.cpu.branchPred.indirectLookups           36492                       # Number of indirect predictor lookups. (Count)
system.cpu.branchPred.indirectHits              35731                       # Number of indirect target hits. (Count)
system.cpu.branchPred.indirectMisses              761                       # Number of indirect misses. (Count)
system.cpu.branchPred.indirectMispredicted           96                       # Number of mispredicted indirect branches. (Count)
system.cpu.commit.commitSquashedInsts         3383120                       # The number of squashed insts skipped by commit (Count)
system.cpu.commit.commitNonSpecStalls             213                       # The number of times commit has been forced to stall to communicate backwards (Count)
system.cpu.commit.branchMispredicts             74434                       # The number of times a branch was mispredicted (Count)
system.cpu.commit.numCommittedDist::samples     44519867                       # Number of insts commited each cycle (Count)
system.cpu.commit.numCommittedDist::mean     0.863668                       # Number of insts commited each cycle (Count)
system.cpu.commit.numCommittedDist::stdev     2.181230                       # Number of insts commited each cycle (Count)
system.cpu.commit.numCommittedDist::underflows            0      0.00%      0.00% # Number of insts commited each cycle (Count)
system.cpu.commit.numCommittedDist::0        34577377     77.67%     77.67% # Number of insts commited each cycle (Count)
system.cpu.commit.numCommittedDist::1         4304704      9.67%     87.34% # Number of insts commited each cycle (Count)
system.cpu.commit.numCommittedDist::2         1049403      2.36%     89.69% # Number of insts commited each cycle (Count)
system.cpu.commit.numCommittedDist::3          318807      0.72%     90.41% # Number of insts commited each cycle (Count)
system.cpu.commit.numCommittedDist::4          199059      0.45%     90.86% # Number of insts commited each cycle (Count)
system.cpu.commit.numCommittedDist::5          627257      1.41%     92.27% # Number of insts commited each cycle (Count)
system.cpu.commit.numCommittedDist::6          119478      0.27%     92.53% # Number of insts commited each cycle (Count)
system.cpu.commit.numCommittedDist::7          149186      0.34%     92.87% # Number of insts commited each cycle (Count)
system.cpu.commit.numCommittedDist::8         3174596      7.13%    100.00% # Number of insts commited each cycle (Count)
system.cpu.commit.numCommittedDist::overflows            0      0.00%    100.00% # Number of insts commited each cycle (Count)
system.cpu.commit.numCommittedDist::min_value            0                       # Number of insts commited each cycle (Count)
system.cpu.commit.numCommittedDist::max_value            8                       # Number of insts commited each cycle (Count)
system.cpu.commit.numCommittedDist::total     44519867                       # Number of insts commited each cycle (Count)
system.cpu.commit.instsCommitted             37296858                       # Number of instructions committed (Count)
system.cpu.commit.opsCommitted               38450390                       # Number of ops (including micro ops) committed (Count)
system.cpu.commit.memRefs                    14169664                       # Number of memory references committed (Count)
system.cpu.commit.loads                      11863771                       # Number of loads committed (Count)
system.cpu.commit.amos                             20                       # Number of atomic instructions committed (Count)
system.cpu.commit.membars                          24                       # Number of memory barriers committed (Count)
system.cpu.commit.branches                    3343867                       # Number of branches committed (Count)
system.cpu.commit.vectorInstructions          5522233                       # Number of committed Vector instructions. (Count)
system.cpu.commit.floating                          0                       # Number of committed floating point instructions. (Count)
system.cpu.commit.integer                    33886787                       # Number of committed integer instructions. (Count)
system.cpu.commit.functionCalls                133220                       # Number of function calls committed. (Count)
system.cpu.commit.committedInstType_0::No_OpClass        13508      0.04%      0.04% # Class of committed instruction (Count)
system.cpu.commit.committedInstType_0::IntAlu     22276957     57.94%     57.97% # Class of committed instruction (Count)
system.cpu.commit.committedInstType_0::IntMult        43827      0.11%     58.09% # Class of committed instruction (Count)
system.cpu.commit.committedInstType_0::IntDiv        16515      0.04%     58.13% # Class of committed instruction (Count)
system.cpu.commit.committedInstType_0::FloatAdd      1155641      3.01%     61.13% # Class of committed instruction (Count)
system.cpu.commit.committedInstType_0::FloatCmp       569268      1.48%     62.62% # Class of committed instruction (Count)
system.cpu.commit.committedInstType_0::FloatCvt            0      0.00%     62.62% # Class of committed instruction (Count)
system.cpu.commit.committedInstType_0::FloatMult            0      0.00%     62.62% # Class of committed instruction (Count)
system.cpu.commit.committedInstType_0::FloatMultAcc            0      0.00%     62.62% # Class of committed instruction (Count)
system.cpu.commit.committedInstType_0::FloatDiv            0      0.00%     62.62% # Class of committed instruction (Count)
system.cpu.commit.committedInstType_0::FloatMisc        24242      0.06%     62.68% # Class of committed instruction (Count)
system.cpu.commit.committedInstType_0::FloatSqrt            0      0.00%     62.68% # Class of committed instruction (Count)
system.cpu.commit.committedInstType_0::SimdAdd        31905      0.08%     62.76% # Class of committed instruction (Count)
system.cpu.commit.committedInstType_0::SimdAddAcc            0      0.00%     62.76% # Class of committed instruction (Count)
system.cpu.commit.committedInstType_0::SimdAlu        58862      0.15%     62.91% # Class of committed instruction (Count)
system.cpu.commit.committedInstType_0::SimdCmp        53936      0.14%     63.05% # Class of committed instruction (Count)
system.cpu.commit.committedInstType_0::SimdCvt            0      0.00%     63.05% # Class of committed instruction (Count)
system.cpu.commit.committedInstType_0::SimdMisc        36065      0.09%     63.15% # Class of committed instruction (Count)
system.cpu.commit.committedInstType_0::SimdMult            0      0.00%     63.15% # Class of committed instruction (Count)
system.cpu.commit.committedInstType_0::SimdMultAcc            0      0.00%     63.15% # Class of committed instruction (Count)
system.cpu.commit.committedInstType_0::SimdShift            0      0.00%     63.15% # Class of committed instruction (Count)
system.cpu.commit.committedInstType_0::SimdShiftAcc            0      0.00%     63.15% # Class of committed instruction (Count)
system.cpu.commit.committedInstType_0::SimdDiv            0      0.00%     63.15% # Class of committed instruction (Count)
system.cpu.commit.committedInstType_0::SimdSqrt            0      0.00%     63.15% # Class of committed instruction (Count)
system.cpu.commit.committedInstType_0::SimdFloatAdd            0      0.00%     63.15% # Class of committed instruction (Count)
system.cpu.commit.committedInstType_0::SimdFloatAlu            0      0.00%     63.15% # Class of committed instruction (Count)
system.cpu.commit.committedInstType_0::SimdFloatCmp            0      0.00%     63.15% # Class of committed instruction (Count)
system.cpu.commit.committedInstType_0::SimdFloatCvt            0      0.00%     63.15% # Class of committed instruction (Count)
system.cpu.commit.committedInstType_0::SimdFloatDiv            0      0.00%     63.15% # Class of committed instruction (Count)
system.cpu.commit.committedInstType_0::SimdFloatMisc            0      0.00%     63.15% # Class of committed instruction (Count)
system.cpu.commit.committedInstType_0::SimdFloatMult            0      0.00%     63.15% # Class of committed instruction (Count)
system.cpu.commit.committedInstType_0::SimdFloatMultAcc            0      0.00%     63.15% # Class of committed instruction (Count)
system.cpu.commit.committedInstType_0::SimdFloatSqrt            0      0.00%     63.15% # Class of committed instruction (Count)
system.cpu.commit.committedInstType_0::SimdReduceAdd            0      0.00%     63.15% # Class of committed instruction (Count)
system.cpu.commit.committedInstType_0::SimdReduceAlu            0      0.00%     63.15% # Class of committed instruction (Count)
system.cpu.commit.committedInstType_0::SimdReduceCmp            0      0.00%     63.15% # Class of committed instruction (Count)
system.cpu.commit.committedInstType_0::SimdFloatReduceAdd            0      0.00%     63.15% # Class of committed instruction (Count)
system.cpu.commit.committedInstType_0::SimdFloatReduceCmp            0      0.00%     63.15% # Class of committed instruction (Count)
system.cpu.commit.committedInstType_0::SimdAes            0      0.00%     63.15% # Class of committed instruction (Count)
system.cpu.commit.committedInstType_0::SimdAesMix            0      0.00%     63.15% # Class of committed instruction (Count)
system.cpu.commit.committedInstType_0::SimdSha1Hash            0      0.00%     63.15% # Class of committed instruction (Count)
system.cpu.commit.committedInstType_0::SimdSha1Hash2            0      0.00%     63.15% # Class of committed instruction (Count)
system.cpu.commit.committedInstType_0::SimdSha256Hash            0      0.00%     63.15% # Class of committed instruction (Count)
system.cpu.commit.committedInstType_0::SimdSha256Hash2            0      0.00%     63.15% # Class of committed instruction (Count)
system.cpu.commit.committedInstType_0::SimdShaSigma2            0      0.00%     63.15% # Class of committed instruction (Count)
system.cpu.commit.committedInstType_0::SimdShaSigma3            0      0.00%     63.15% # Class of committed instruction (Count)
system.cpu.commit.committedInstType_0::SimdPredAlu            0      0.00%     63.15% # Class of committed instruction (Count)
system.cpu.commit.committedInstType_0::MemRead     11863771     30.85%     94.00% # Class of committed instruction (Count)
system.cpu.commit.committedInstType_0::MemWrite      2305893      6.00%    100.00% # Class of committed instruction (Count)
system.cpu.commit.committedInstType_0::FloatMemRead            0      0.00%    100.00% # Class of committed instruction (Count)
system.cpu.commit.committedInstType_0::FloatMemWrite            0      0.00%    100.00% # Class of committed instruction (Count)
system.cpu.commit.committedInstType_0::IprAccess            0      0.00%    100.00% # Class of committed instruction (Count)
system.cpu.commit.committedInstType_0::InstPrefetch            0      0.00%    100.00% # Class of committed instruction (Count)
system.cpu.commit.committedInstType_0::total     38450390                       # Class of committed instruction (Count)
system.cpu.commit.commitEligibleSamples       3174596                       # number cycles where commit BW limit reached (Cycle)
system.cpu.dcache.demandHits::cpu.data       10712733                       # number of demand (read+write) hits (Count)
system.cpu.dcache.demandHits::total          10712733                       # number of demand (read+write) hits (Count)
system.cpu.dcache.overallHits::cpu.data      10729842                       # number of overall hits (Count)
system.cpu.dcache.overallHits::total         10729842                       # number of overall hits (Count)
system.cpu.dcache.demandMisses::cpu.data       740710                       # number of demand (read+write) misses (Count)
system.cpu.dcache.demandMisses::total          740710                       # number of demand (read+write) misses (Count)
system.cpu.dcache.overallMisses::cpu.data       740880                       # number of overall misses (Count)
system.cpu.dcache.overallMisses::total         740880                       # number of overall misses (Count)
system.cpu.dcache.demandMissLatency::cpu.data  38010891816                       # number of demand (read+write) miss ticks (Tick)
system.cpu.dcache.demandMissLatency::total  38010891816                       # number of demand (read+write) miss ticks (Tick)
system.cpu.dcache.overallMissLatency::cpu.data  38010891816                       # number of overall miss ticks (Tick)
system.cpu.dcache.overallMissLatency::total  38010891816                       # number of overall miss ticks (Tick)
system.cpu.dcache.demandAccesses::cpu.data     11453443                       # number of demand (read+write) accesses (Count)
system.cpu.dcache.demandAccesses::total      11453443                       # number of demand (read+write) accesses (Count)
system.cpu.dcache.overallAccesses::cpu.data     11470722                       # number of overall (read+write) accesses (Count)
system.cpu.dcache.overallAccesses::total     11470722                       # number of overall (read+write) accesses (Count)
system.cpu.dcache.demandMissRate::cpu.data     0.064671                       # miss rate for demand accesses (Ratio)
system.cpu.dcache.demandMissRate::total      0.064671                       # miss rate for demand accesses (Ratio)
system.cpu.dcache.overallMissRate::cpu.data     0.064589                       # miss rate for overall accesses (Ratio)
system.cpu.dcache.overallMissRate::total     0.064589                       # miss rate for overall accesses (Ratio)
system.cpu.dcache.demandAvgMissLatency::cpu.data 51316.833600                       # average overall miss latency ((Cycle/Count))
system.cpu.dcache.demandAvgMissLatency::total 51316.833600                       # average overall miss latency ((Cycle/Count))
system.cpu.dcache.overallAvgMissLatency::cpu.data 51305.058601                       # average overall miss latency ((Cycle/Count))
system.cpu.dcache.overallAvgMissLatency::total 51305.058601                       # average overall miss latency ((Cycle/Count))
system.cpu.dcache.blockedCycles::no_mshrs       112385                       # number of cycles access was blocked (Cycle)
system.cpu.dcache.blockedCycles::no_targets          143                       # number of cycles access was blocked (Cycle)
system.cpu.dcache.blockedCauses::no_mshrs         4733                       # number of times access was blocked (Count)
system.cpu.dcache.blockedCauses::no_targets            6                       # number of times access was blocked (Count)
system.cpu.dcache.avgBlocked::no_mshrs      23.744982                       # average number of cycles each access was blocked ((Cycle/Count))
system.cpu.dcache.avgBlocked::no_targets    23.833333                       # average number of cycles each access was blocked ((Cycle/Count))
system.cpu.dcache.writebacks::writebacks        22293                       # number of writebacks (Count)
system.cpu.dcache.writebacks::total             22293                       # number of writebacks (Count)
system.cpu.dcache.demandMshrHits::cpu.data        90915                       # number of demand (read+write) MSHR hits (Count)
system.cpu.dcache.demandMshrHits::total         90915                       # number of demand (read+write) MSHR hits (Count)
system.cpu.dcache.overallMshrHits::cpu.data        90915                       # number of overall MSHR hits (Count)
system.cpu.dcache.overallMshrHits::total        90915                       # number of overall MSHR hits (Count)
system.cpu.dcache.demandMshrMisses::cpu.data       649795                       # number of demand (read+write) MSHR misses (Count)
system.cpu.dcache.demandMshrMisses::total       649795                       # number of demand (read+write) MSHR misses (Count)
system.cpu.dcache.overallMshrMisses::cpu.data       649960                       # number of overall MSHR misses (Count)
system.cpu.dcache.overallMshrMisses::total       649960                       # number of overall MSHR misses (Count)
system.cpu.dcache.demandMshrMissLatency::cpu.data  34310757986                       # number of demand (read+write) MSHR miss ticks (Tick)
system.cpu.dcache.demandMshrMissLatency::total  34310757986                       # number of demand (read+write) MSHR miss ticks (Tick)
system.cpu.dcache.overallMshrMissLatency::cpu.data  34319624486                       # number of overall MSHR miss ticks (Tick)
system.cpu.dcache.overallMshrMissLatency::total  34319624486                       # number of overall MSHR miss ticks (Tick)
system.cpu.dcache.demandMshrMissRate::cpu.data     0.056734                       # mshr miss ratio for demand accesses (Ratio)
system.cpu.dcache.demandMshrMissRate::total     0.056734                       # mshr miss ratio for demand accesses (Ratio)
system.cpu.dcache.overallMshrMissRate::cpu.data     0.056663                       # mshr miss ratio for overall accesses (Ratio)
system.cpu.dcache.overallMshrMissRate::total     0.056663                       # mshr miss ratio for overall accesses (Ratio)
system.cpu.dcache.demandAvgMshrMissLatency::cpu.data 52802.434592                       # average overall mshr miss latency ((Cycle/Count))
system.cpu.dcache.demandAvgMshrMissLatency::total 52802.434592                       # average overall mshr miss latency ((Cycle/Count))
system.cpu.dcache.overallAvgMshrMissLatency::cpu.data 52802.671681                       # average overall mshr miss latency ((Cycle/Count))
system.cpu.dcache.overallAvgMshrMissLatency::total 52802.671681                       # average overall mshr miss latency ((Cycle/Count))
system.cpu.dcache.replacements                 649898                       # number of replacements (Count)
system.cpu.dcache.LoadLockedReq.hits::cpu.data            8                       # number of LoadLockedReq hits (Count)
system.cpu.dcache.LoadLockedReq.hits::total            8                       # number of LoadLockedReq hits (Count)
system.cpu.dcache.LoadLockedReq.misses::cpu.data            1                       # number of LoadLockedReq misses (Count)
system.cpu.dcache.LoadLockedReq.misses::total            1                       # number of LoadLockedReq misses (Count)
system.cpu.dcache.LoadLockedReq.missLatency::cpu.data        65500                       # number of LoadLockedReq miss ticks (Tick)
system.cpu.dcache.LoadLockedReq.missLatency::total        65500                       # number of LoadLockedReq miss ticks (Tick)
system.cpu.dcache.LoadLockedReq.accesses::cpu.data            9                       # number of LoadLockedReq accesses(hits+misses) (Count)
system.cpu.dcache.LoadLockedReq.accesses::total            9                       # number of LoadLockedReq accesses(hits+misses) (Count)
system.cpu.dcache.LoadLockedReq.missRate::cpu.data     0.111111                       # miss rate for LoadLockedReq accesses (Ratio)
system.cpu.dcache.LoadLockedReq.missRate::total     0.111111                       # miss rate for LoadLockedReq accesses (Ratio)
system.cpu.dcache.LoadLockedReq.avgMissLatency::cpu.data        65500                       # average LoadLockedReq miss latency ((Tick/Count))
system.cpu.dcache.LoadLockedReq.avgMissLatency::total        65500                       # average LoadLockedReq miss latency ((Tick/Count))
system.cpu.dcache.LoadLockedReq.mshrMisses::cpu.data            1                       # number of LoadLockedReq MSHR misses (Count)
system.cpu.dcache.LoadLockedReq.mshrMisses::total            1                       # number of LoadLockedReq MSHR misses (Count)
system.cpu.dcache.LoadLockedReq.mshrMissLatency::cpu.data        64500                       # number of LoadLockedReq MSHR miss ticks (Tick)
system.cpu.dcache.LoadLockedReq.mshrMissLatency::total        64500                       # number of LoadLockedReq MSHR miss ticks (Tick)
system.cpu.dcache.LoadLockedReq.mshrMissRate::cpu.data     0.111111                       # mshr miss rate for LoadLockedReq accesses (Ratio)
system.cpu.dcache.LoadLockedReq.mshrMissRate::total     0.111111                       # mshr miss rate for LoadLockedReq accesses (Ratio)
system.cpu.dcache.LoadLockedReq.avgMshrMissLatency::cpu.data        64500                       # average LoadLockedReq mshr miss latency ((Tick/Count))
system.cpu.dcache.LoadLockedReq.avgMshrMissLatency::total        64500                       # average LoadLockedReq mshr miss latency ((Tick/Count))
system.cpu.dcache.ReadReq.hits::cpu.data      8444464                       # number of ReadReq hits (Count)
system.cpu.dcache.ReadReq.hits::total         8444464                       # number of ReadReq hits (Count)
system.cpu.dcache.ReadReq.misses::cpu.data       703109                       # number of ReadReq misses (Count)
system.cpu.dcache.ReadReq.misses::total        703109                       # number of ReadReq misses (Count)
system.cpu.dcache.ReadReq.missLatency::cpu.data  37101677500                       # number of ReadReq miss ticks (Tick)
system.cpu.dcache.ReadReq.missLatency::total  37101677500                       # number of ReadReq miss ticks (Tick)
system.cpu.dcache.ReadReq.accesses::cpu.data      9147573                       # number of ReadReq accesses(hits+misses) (Count)
system.cpu.dcache.ReadReq.accesses::total      9147573                       # number of ReadReq accesses(hits+misses) (Count)
system.cpu.dcache.ReadReq.missRate::cpu.data     0.076863                       # miss rate for ReadReq accesses (Ratio)
system.cpu.dcache.ReadReq.missRate::total     0.076863                       # miss rate for ReadReq accesses (Ratio)
system.cpu.dcache.ReadReq.avgMissLatency::cpu.data 52768.030988                       # average ReadReq miss latency ((Tick/Count))
system.cpu.dcache.ReadReq.avgMissLatency::total 52768.030988                       # average ReadReq miss latency ((Tick/Count))
system.cpu.dcache.ReadReq.mshrHits::cpu.data        71741                       # number of ReadReq MSHR hits (Count)
system.cpu.dcache.ReadReq.mshrHits::total        71741                       # number of ReadReq MSHR hits (Count)
system.cpu.dcache.ReadReq.mshrMisses::cpu.data       631368                       # number of ReadReq MSHR misses (Count)
system.cpu.dcache.ReadReq.mshrMisses::total       631368                       # number of ReadReq MSHR misses (Count)
system.cpu.dcache.ReadReq.mshrMissLatency::cpu.data  33824339500                       # number of ReadReq MSHR miss ticks (Tick)
system.cpu.dcache.ReadReq.mshrMissLatency::total  33824339500                       # number of ReadReq MSHR miss ticks (Tick)
system.cpu.dcache.ReadReq.mshrMissRate::cpu.data     0.069020                       # mshr miss rate for ReadReq accesses (Ratio)
system.cpu.dcache.ReadReq.mshrMissRate::total     0.069020                       # mshr miss rate for ReadReq accesses (Ratio)
system.cpu.dcache.ReadReq.avgMshrMissLatency::cpu.data 53573.097623                       # average ReadReq mshr miss latency ((Tick/Count))
system.cpu.dcache.ReadReq.avgMshrMissLatency::total 53573.097623                       # average ReadReq mshr miss latency ((Tick/Count))
system.cpu.dcache.SoftPFReq.hits::cpu.data        17109                       # number of SoftPFReq hits (Count)
system.cpu.dcache.SoftPFReq.hits::total         17109                       # number of SoftPFReq hits (Count)
system.cpu.dcache.SoftPFReq.misses::cpu.data          170                       # number of SoftPFReq misses (Count)
system.cpu.dcache.SoftPFReq.misses::total          170                       # number of SoftPFReq misses (Count)
system.cpu.dcache.SoftPFReq.accesses::cpu.data        17279                       # number of SoftPFReq accesses(hits+misses) (Count)
system.cpu.dcache.SoftPFReq.accesses::total        17279                       # number of SoftPFReq accesses(hits+misses) (Count)
system.cpu.dcache.SoftPFReq.missRate::cpu.data     0.009839                       # miss rate for SoftPFReq accesses (Ratio)
system.cpu.dcache.SoftPFReq.missRate::total     0.009839                       # miss rate for SoftPFReq accesses (Ratio)
system.cpu.dcache.SoftPFReq.mshrMisses::cpu.data          165                       # number of SoftPFReq MSHR misses (Count)
system.cpu.dcache.SoftPFReq.mshrMisses::total          165                       # number of SoftPFReq MSHR misses (Count)
system.cpu.dcache.SoftPFReq.mshrMissLatency::cpu.data      8866500                       # number of SoftPFReq MSHR miss ticks (Tick)
system.cpu.dcache.SoftPFReq.mshrMissLatency::total      8866500                       # number of SoftPFReq MSHR miss ticks (Tick)
system.cpu.dcache.SoftPFReq.mshrMissRate::cpu.data     0.009549                       # mshr miss rate for SoftPFReq accesses (Ratio)
system.cpu.dcache.SoftPFReq.mshrMissRate::total     0.009549                       # mshr miss rate for SoftPFReq accesses (Ratio)
system.cpu.dcache.SoftPFReq.avgMshrMissLatency::cpu.data 53736.363636                       # average SoftPFReq mshr miss latency ((Tick/Count))
system.cpu.dcache.SoftPFReq.avgMshrMissLatency::total 53736.363636                       # average SoftPFReq mshr miss latency ((Tick/Count))
system.cpu.dcache.StoreCondReq.hits::cpu.data            4                       # number of StoreCondReq hits (Count)
system.cpu.dcache.StoreCondReq.hits::total            4                       # number of StoreCondReq hits (Count)
system.cpu.dcache.StoreCondReq.accesses::cpu.data            4                       # number of StoreCondReq accesses(hits+misses) (Count)
system.cpu.dcache.StoreCondReq.accesses::total            4                       # number of StoreCondReq accesses(hits+misses) (Count)
system.cpu.dcache.SwapReq.hits::cpu.data           19                       # number of SwapReq hits (Count)
system.cpu.dcache.SwapReq.hits::total              19                       # number of SwapReq hits (Count)
system.cpu.dcache.SwapReq.misses::cpu.data            1                       # number of SwapReq misses (Count)
system.cpu.dcache.SwapReq.misses::total             1                       # number of SwapReq misses (Count)
system.cpu.dcache.SwapReq.missLatency::cpu.data        51500                       # number of SwapReq miss ticks (Tick)
system.cpu.dcache.SwapReq.missLatency::total        51500                       # number of SwapReq miss ticks (Tick)
system.cpu.dcache.SwapReq.accesses::cpu.data           20                       # number of SwapReq accesses(hits+misses) (Count)
system.cpu.dcache.SwapReq.accesses::total           20                       # number of SwapReq accesses(hits+misses) (Count)
system.cpu.dcache.SwapReq.missRate::cpu.data     0.050000                       # miss rate for SwapReq accesses (Ratio)
system.cpu.dcache.SwapReq.missRate::total     0.050000                       # miss rate for SwapReq accesses (Ratio)
system.cpu.dcache.SwapReq.avgMissLatency::cpu.data        51500                       # average SwapReq miss latency ((Tick/Count))
system.cpu.dcache.SwapReq.avgMissLatency::total        51500                       # average SwapReq miss latency ((Tick/Count))
system.cpu.dcache.SwapReq.mshrMisses::cpu.data            1                       # number of SwapReq MSHR misses (Count)
system.cpu.dcache.SwapReq.mshrMisses::total            1                       # number of SwapReq MSHR misses (Count)
system.cpu.dcache.SwapReq.mshrMissLatency::cpu.data        50500                       # number of SwapReq MSHR miss ticks (Tick)
system.cpu.dcache.SwapReq.mshrMissLatency::total        50500                       # number of SwapReq MSHR miss ticks (Tick)
system.cpu.dcache.SwapReq.mshrMissRate::cpu.data     0.050000                       # mshr miss rate for SwapReq accesses (Ratio)
system.cpu.dcache.SwapReq.mshrMissRate::total     0.050000                       # mshr miss rate for SwapReq accesses (Ratio)
system.cpu.dcache.SwapReq.avgMshrMissLatency::cpu.data        50500                       # average SwapReq mshr miss latency ((Tick/Count))
system.cpu.dcache.SwapReq.avgMshrMissLatency::total        50500                       # average SwapReq mshr miss latency ((Tick/Count))
system.cpu.dcache.WriteLineReq.misses::cpu.data         2073                       # number of WriteLineReq misses (Count)
system.cpu.dcache.WriteLineReq.misses::total         2073                       # number of WriteLineReq misses (Count)
system.cpu.dcache.WriteLineReq.missLatency::cpu.data     40080995                       # number of WriteLineReq miss ticks (Tick)
system.cpu.dcache.WriteLineReq.missLatency::total     40080995                       # number of WriteLineReq miss ticks (Tick)
system.cpu.dcache.WriteLineReq.accesses::cpu.data         2073                       # number of WriteLineReq accesses(hits+misses) (Count)
system.cpu.dcache.WriteLineReq.accesses::total         2073                       # number of WriteLineReq accesses(hits+misses) (Count)
system.cpu.dcache.WriteLineReq.missRate::cpu.data            1                       # miss rate for WriteLineReq accesses (Ratio)
system.cpu.dcache.WriteLineReq.missRate::total            1                       # miss rate for WriteLineReq accesses (Ratio)
system.cpu.dcache.WriteLineReq.avgMissLatency::cpu.data 19334.778099                       # average WriteLineReq miss latency ((Tick/Count))
system.cpu.dcache.WriteLineReq.avgMissLatency::total 19334.778099                       # average WriteLineReq miss latency ((Tick/Count))
system.cpu.dcache.WriteLineReq.mshrMisses::cpu.data         2073                       # number of WriteLineReq MSHR misses (Count)
system.cpu.dcache.WriteLineReq.mshrMisses::total         2073                       # number of WriteLineReq MSHR misses (Count)
system.cpu.dcache.WriteLineReq.mshrMissLatency::cpu.data     38007995                       # number of WriteLineReq MSHR miss ticks (Tick)
system.cpu.dcache.WriteLineReq.mshrMissLatency::total     38007995                       # number of WriteLineReq MSHR miss ticks (Tick)
system.cpu.dcache.WriteLineReq.mshrMissRate::cpu.data            1                       # mshr miss rate for WriteLineReq accesses (Ratio)
system.cpu.dcache.WriteLineReq.mshrMissRate::total            1                       # mshr miss rate for WriteLineReq accesses (Ratio)
system.cpu.dcache.WriteLineReq.avgMshrMissLatency::cpu.data 18334.778099                       # average WriteLineReq mshr miss latency ((Tick/Count))
system.cpu.dcache.WriteLineReq.avgMshrMissLatency::total 18334.778099                       # average WriteLineReq mshr miss latency ((Tick/Count))
system.cpu.dcache.WriteReq.hits::cpu.data      2268269                       # number of WriteReq hits (Count)
system.cpu.dcache.WriteReq.hits::total        2268269                       # number of WriteReq hits (Count)
system.cpu.dcache.WriteReq.misses::cpu.data        35528                       # number of WriteReq misses (Count)
system.cpu.dcache.WriteReq.misses::total        35528                       # number of WriteReq misses (Count)
system.cpu.dcache.WriteReq.missLatency::cpu.data    869133321                       # number of WriteReq miss ticks (Tick)
system.cpu.dcache.WriteReq.missLatency::total    869133321                       # number of WriteReq miss ticks (Tick)
system.cpu.dcache.WriteReq.accesses::cpu.data      2303797                       # number of WriteReq accesses(hits+misses) (Count)
system.cpu.dcache.WriteReq.accesses::total      2303797                       # number of WriteReq accesses(hits+misses) (Count)
system.cpu.dcache.WriteReq.missRate::cpu.data     0.015421                       # miss rate for WriteReq accesses (Ratio)
system.cpu.dcache.WriteReq.missRate::total     0.015421                       # miss rate for WriteReq accesses (Ratio)
system.cpu.dcache.WriteReq.avgMissLatency::cpu.data 24463.333737                       # average WriteReq miss latency ((Tick/Count))
system.cpu.dcache.WriteReq.avgMissLatency::total 24463.333737                       # average WriteReq miss latency ((Tick/Count))
system.cpu.dcache.WriteReq.mshrHits::cpu.data        19174                       # number of WriteReq MSHR hits (Count)
system.cpu.dcache.WriteReq.mshrHits::total        19174                       # number of WriteReq MSHR hits (Count)
system.cpu.dcache.WriteReq.mshrMisses::cpu.data        16354                       # number of WriteReq MSHR misses (Count)
system.cpu.dcache.WriteReq.mshrMisses::total        16354                       # number of WriteReq MSHR misses (Count)
system.cpu.dcache.WriteReq.mshrMissLatency::cpu.data    448410491                       # number of WriteReq MSHR miss ticks (Tick)
system.cpu.dcache.WriteReq.mshrMissLatency::total    448410491                       # number of WriteReq MSHR miss ticks (Tick)
system.cpu.dcache.WriteReq.mshrMissRate::cpu.data     0.007099                       # mshr miss rate for WriteReq accesses (Ratio)
system.cpu.dcache.WriteReq.mshrMissRate::total     0.007099                       # mshr miss rate for WriteReq accesses (Ratio)
system.cpu.dcache.WriteReq.avgMshrMissLatency::cpu.data 27419.010089                       # average WriteReq mshr miss latency ((Tick/Count))
system.cpu.dcache.WriteReq.avgMshrMissLatency::total 27419.010089                       # average WriteReq mshr miss latency ((Tick/Count))
system.cpu.dcache.power_state.pwrStateResidencyTicks::UNDEFINED  22514738000                       # Cumulative time (in ticks) in various power states (Tick)
system.cpu.dcache.tags.tagsInUse            63.989988                       # Average ticks per tags in use ((Tick/Count))
system.cpu.dcache.tags.totalRefs             11379835                       # Total number of references to valid blocks. (Count)
system.cpu.dcache.tags.sampledRefs             649962                       # Sample count of references to valid blocks. (Count)
system.cpu.dcache.tags.avgRefs              17.508462                       # Average number of references to valid blocks. ((Count/Count))
system.cpu.dcache.tags.warmupTick              145000                       # The tick when the warmup percentage was hit. (Tick)
system.cpu.dcache.tags.occupancies::cpu.data    63.989988                       # Average occupied blocks per tick, per requestor ((Count/Tick))
system.cpu.dcache.tags.avgOccs::cpu.data     0.999844                       # Average percentage of cache occupancy ((Ratio/Tick))
system.cpu.dcache.tags.avgOccs::total        0.999844                       # Average percentage of cache occupancy ((Ratio/Tick))
system.cpu.dcache.tags.occupanciesTaskId::1024           64                       # Occupied blocks per task id (Count)
system.cpu.dcache.tags.ageTaskId_1024::0           45                       # Occupied blocks per task id, per block age (Count)
system.cpu.dcache.tags.ageTaskId_1024::1           19                       # Occupied blocks per task id, per block age (Count)
system.cpu.dcache.tags.ratioOccsTaskId::1024            1                       # Ratio of occupied blocks and all blocks, per task id (Ratio)
system.cpu.dcache.tags.tagAccesses           23591472                       # Number of tag accesses (Count)
system.cpu.dcache.tags.dataAccesses          23591472                       # Number of data accesses (Count)
system.cpu.dcache.tags.power_state.pwrStateResidencyTicks::UNDEFINED  22514738000                       # Cumulative time (in ticks) in various power states (Tick)
system.cpu.decode.idleCycles                  2693893                       # Number of cycles decode is idle (Cycle)
system.cpu.decode.blockedCycles              35672177                       # Number of cycles decode is blocked (Cycle)
system.cpu.decode.runCycles                   4563423                       # Number of cycles decode is running (Cycle)
system.cpu.decode.unblockCycles               1969170                       # Number of cycles decode is unblocking (Cycle)
system.cpu.decode.squashCycles                  75154                       # Number of cycles decode is squashing (Cycle)
system.cpu.decode.branchResolved              2602172                       # Number of times decode resolved a branch (Count)
system.cpu.decode.branchMispred                   433                       # Number of times decode detected a branch misprediction (Count)
system.cpu.decode.decodedInsts               42584316                       # Number of instructions handled by decode (Count)
system.cpu.decode.squashedInsts                  1617                       # Number of squashed instructions handled by decode (Count)
system.cpu.fetch.icacheStallCycles            4968155                       # Number of cycles fetch is stalled on an Icache miss (Cycle)
system.cpu.fetch.insts                       43144205                       # Number of instructions fetch has processed (Count)
system.cpu.fetch.branches                     3737496                       # Number of branches that fetch encountered (Count)
system.cpu.fetch.predictedBranches            2865896                       # Number of branches that fetch has predicted taken (Count)
system.cpu.fetch.cycles                      39929973                       # Number of cycles fetch has run and was not squashing or blocked (Cycle)
system.cpu.fetch.squashCycles                  151158                       # Number of cycles fetch has spent squashing (Cycle)
system.cpu.fetch.miscStallCycles                   65                       # Number of cycles fetch has spent waiting on interrupts, or bad addresses, or out of MSHRs (Cycle)
system.cpu.fetch.icacheWaitRetryStallCycles           45                       # Number of stall cycles due to full MSHR (Cycle)
system.cpu.fetch.cacheLines                   4916234                       # Number of cache lines fetched (Count)
system.cpu.fetch.icacheSquashes                 30153                       # Number of outstanding Icache misses that were squashed (Count)
system.cpu.fetch.nisnDist::samples           44973817                       # Number of instructions fetched each cycle (Total) (Count)
system.cpu.fetch.nisnDist::mean              0.988075                       # Number of instructions fetched each cycle (Total) (Count)
system.cpu.fetch.nisnDist::stdev             2.392160                       # Number of instructions fetched each cycle (Total) (Count)
system.cpu.fetch.nisnDist::underflows               0      0.00%      0.00% # Number of instructions fetched each cycle (Total) (Count)
system.cpu.fetch.nisnDist::0                 37086426     82.46%     82.46% # Number of instructions fetched each cycle (Total) (Count)
system.cpu.fetch.nisnDist::1                   650916      1.45%     83.91% # Number of instructions fetched each cycle (Total) (Count)
system.cpu.fetch.nisnDist::2                   739067      1.64%     85.55% # Number of instructions fetched each cycle (Total) (Count)
system.cpu.fetch.nisnDist::3                   554260      1.23%     86.79% # Number of instructions fetched each cycle (Total) (Count)
system.cpu.fetch.nisnDist::4                  1040978      2.31%     89.10% # Number of instructions fetched each cycle (Total) (Count)
system.cpu.fetch.nisnDist::5                   235016      0.52%     89.62% # Number of instructions fetched each cycle (Total) (Count)
system.cpu.fetch.nisnDist::6                   950557      2.11%     91.74% # Number of instructions fetched each cycle (Total) (Count)
system.cpu.fetch.nisnDist::7                   129448      0.29%     92.02% # Number of instructions fetched each cycle (Total) (Count)
system.cpu.fetch.nisnDist::8                  3587149      7.98%    100.00% # Number of instructions fetched each cycle (Total) (Count)
system.cpu.fetch.nisnDist::overflows                0      0.00%    100.00% # Number of instructions fetched each cycle (Total) (Count)
system.cpu.fetch.nisnDist::min_value                0                       # Number of instructions fetched each cycle (Total) (Count)
system.cpu.fetch.nisnDist::max_value                8                       # Number of instructions fetched each cycle (Total) (Count)
system.cpu.fetch.nisnDist::total             44973817                       # Number of instructions fetched each cycle (Total) (Count)
system.cpu.fetch.branchRate                  0.083001                       # Number of branch fetches per cycle (Ratio)
system.cpu.fetch.rate                        0.958132                       # Number of inst fetches per cycle ((Count/Cycle))
system.cpu.icache.demandHits::cpu.inst        4914945                       # number of demand (read+write) hits (Count)
system.cpu.icache.demandHits::total           4914945                       # number of demand (read+write) hits (Count)
system.cpu.icache.overallHits::cpu.inst       4914945                       # number of overall hits (Count)
system.cpu.icache.overallHits::total          4914945                       # number of overall hits (Count)
system.cpu.icache.demandMisses::cpu.inst         1288                       # number of demand (read+write) misses (Count)
system.cpu.icache.demandMisses::total            1288                       # number of demand (read+write) misses (Count)
system.cpu.icache.overallMisses::cpu.inst         1288                       # number of overall misses (Count)
system.cpu.icache.overallMisses::total           1288                       # number of overall misses (Count)
system.cpu.icache.demandMissLatency::cpu.inst     78297498                       # number of demand (read+write) miss ticks (Tick)
system.cpu.icache.demandMissLatency::total     78297498                       # number of demand (read+write) miss ticks (Tick)
system.cpu.icache.overallMissLatency::cpu.inst     78297498                       # number of overall miss ticks (Tick)
system.cpu.icache.overallMissLatency::total     78297498                       # number of overall miss ticks (Tick)
system.cpu.icache.demandAccesses::cpu.inst      4916233                       # number of demand (read+write) accesses (Count)
system.cpu.icache.demandAccesses::total       4916233                       # number of demand (read+write) accesses (Count)
system.cpu.icache.overallAccesses::cpu.inst      4916233                       # number of overall (read+write) accesses (Count)
system.cpu.icache.overallAccesses::total      4916233                       # number of overall (read+write) accesses (Count)
system.cpu.icache.demandMissRate::cpu.inst     0.000262                       # miss rate for demand accesses (Ratio)
system.cpu.icache.demandMissRate::total      0.000262                       # miss rate for demand accesses (Ratio)
system.cpu.icache.overallMissRate::cpu.inst     0.000262                       # miss rate for overall accesses (Ratio)
system.cpu.icache.overallMissRate::total     0.000262                       # miss rate for overall accesses (Ratio)
system.cpu.icache.demandAvgMissLatency::cpu.inst 60789.982919                       # average overall miss latency ((Cycle/Count))
system.cpu.icache.demandAvgMissLatency::total 60789.982919                       # average overall miss latency ((Cycle/Count))
system.cpu.icache.overallAvgMissLatency::cpu.inst 60789.982919                       # average overall miss latency ((Cycle/Count))
system.cpu.icache.overallAvgMissLatency::total 60789.982919                       # average overall miss latency ((Cycle/Count))
system.cpu.icache.blockedCycles::no_mshrs          630                       # number of cycles access was blocked (Cycle)
system.cpu.icache.blockedCycles::no_targets            0                       # number of cycles access was blocked (Cycle)
system.cpu.icache.blockedCauses::no_mshrs           12                       # number of times access was blocked (Count)
system.cpu.icache.blockedCauses::no_targets            0                       # number of times access was blocked (Count)
system.cpu.icache.avgBlocked::no_mshrs      52.500000                       # average number of cycles each access was blocked ((Cycle/Count))
system.cpu.icache.avgBlocked::no_targets          nan                       # average number of cycles each access was blocked ((Cycle/Count))
system.cpu.icache.writebacks::writebacks          546                       # number of writebacks (Count)
system.cpu.icache.writebacks::total               546                       # number of writebacks (Count)
system.cpu.icache.demandMshrHits::cpu.inst          260                       # number of demand (read+write) MSHR hits (Count)
system.cpu.icache.demandMshrHits::total           260                       # number of demand (read+write) MSHR hits (Count)
system.cpu.icache.overallMshrHits::cpu.inst          260                       # number of overall MSHR hits (Count)
system.cpu.icache.overallMshrHits::total          260                       # number of overall MSHR hits (Count)
system.cpu.icache.demandMshrMisses::cpu.inst         1028                       # number of demand (read+write) MSHR misses (Count)
system.cpu.icache.demandMshrMisses::total         1028                       # number of demand (read+write) MSHR misses (Count)
system.cpu.icache.overallMshrMisses::cpu.inst         1028                       # number of overall MSHR misses (Count)
system.cpu.icache.overallMshrMisses::total         1028                       # number of overall MSHR misses (Count)
system.cpu.icache.demandMshrMissLatency::cpu.inst     64589499                       # number of demand (read+write) MSHR miss ticks (Tick)
system.cpu.icache.demandMshrMissLatency::total     64589499                       # number of demand (read+write) MSHR miss ticks (Tick)
system.cpu.icache.overallMshrMissLatency::cpu.inst     64589499                       # number of overall MSHR miss ticks (Tick)
system.cpu.icache.overallMshrMissLatency::total     64589499                       # number of overall MSHR miss ticks (Tick)
system.cpu.icache.demandMshrMissRate::cpu.inst     0.000209                       # mshr miss ratio for demand accesses (Ratio)
system.cpu.icache.demandMshrMissRate::total     0.000209                       # mshr miss ratio for demand accesses (Ratio)
system.cpu.icache.overallMshrMissRate::cpu.inst     0.000209                       # mshr miss ratio for overall accesses (Ratio)
system.cpu.icache.overallMshrMissRate::total     0.000209                       # mshr miss ratio for overall accesses (Ratio)
system.cpu.icache.demandAvgMshrMissLatency::cpu.inst 62830.251946                       # average overall mshr miss latency ((Cycle/Count))
system.cpu.icache.demandAvgMshrMissLatency::total 62830.251946                       # average overall mshr miss latency ((Cycle/Count))
system.cpu.icache.overallAvgMshrMissLatency::cpu.inst 62830.251946                       # average overall mshr miss latency ((Cycle/Count))
system.cpu.icache.overallAvgMshrMissLatency::total 62830.251946                       # average overall mshr miss latency ((Cycle/Count))
system.cpu.icache.replacements                    546                       # number of replacements (Count)
system.cpu.icache.ReadReq.hits::cpu.inst      4914945                       # number of ReadReq hits (Count)
system.cpu.icache.ReadReq.hits::total         4914945                       # number of ReadReq hits (Count)
system.cpu.icache.ReadReq.misses::cpu.inst         1288                       # number of ReadReq misses (Count)
system.cpu.icache.ReadReq.misses::total          1288                       # number of ReadReq misses (Count)
system.cpu.icache.ReadReq.missLatency::cpu.inst     78297498                       # number of ReadReq miss ticks (Tick)
system.cpu.icache.ReadReq.missLatency::total     78297498                       # number of ReadReq miss ticks (Tick)
system.cpu.icache.ReadReq.accesses::cpu.inst      4916233                       # number of ReadReq accesses(hits+misses) (Count)
system.cpu.icache.ReadReq.accesses::total      4916233                       # number of ReadReq accesses(hits+misses) (Count)
system.cpu.icache.ReadReq.missRate::cpu.inst     0.000262                       # miss rate for ReadReq accesses (Ratio)
system.cpu.icache.ReadReq.missRate::total     0.000262                       # miss rate for ReadReq accesses (Ratio)
system.cpu.icache.ReadReq.avgMissLatency::cpu.inst 60789.982919                       # average ReadReq miss latency ((Tick/Count))
system.cpu.icache.ReadReq.avgMissLatency::total 60789.982919                       # average ReadReq miss latency ((Tick/Count))
system.cpu.icache.ReadReq.mshrHits::cpu.inst          260                       # number of ReadReq MSHR hits (Count)
system.cpu.icache.ReadReq.mshrHits::total          260                       # number of ReadReq MSHR hits (Count)
system.cpu.icache.ReadReq.mshrMisses::cpu.inst         1028                       # number of ReadReq MSHR misses (Count)
system.cpu.icache.ReadReq.mshrMisses::total         1028                       # number of ReadReq MSHR misses (Count)
system.cpu.icache.ReadReq.mshrMissLatency::cpu.inst     64589499                       # number of ReadReq MSHR miss ticks (Tick)
system.cpu.icache.ReadReq.mshrMissLatency::total     64589499                       # number of ReadReq MSHR miss ticks (Tick)
system.cpu.icache.ReadReq.mshrMissRate::cpu.inst     0.000209                       # mshr miss rate for ReadReq accesses (Ratio)
system.cpu.icache.ReadReq.mshrMissRate::total     0.000209                       # mshr miss rate for ReadReq accesses (Ratio)
system.cpu.icache.ReadReq.avgMshrMissLatency::cpu.inst 62830.251946                       # average ReadReq mshr miss latency ((Tick/Count))
system.cpu.icache.ReadReq.avgMshrMissLatency::total 62830.251946                       # average ReadReq mshr miss latency ((Tick/Count))
system.cpu.icache.power_state.pwrStateResidencyTicks::UNDEFINED  22514738000                       # Cumulative time (in ticks) in various power states (Tick)
system.cpu.icache.tags.tagsInUse           406.922908                       # Average ticks per tags in use ((Tick/Count))
system.cpu.icache.tags.totalRefs              4915972                       # Total number of references to valid blocks. (Count)
system.cpu.icache.tags.sampledRefs               1027                       # Sample count of references to valid blocks. (Count)
system.cpu.icache.tags.avgRefs            4786.730282                       # Average number of references to valid blocks. ((Count/Count))
system.cpu.icache.tags.warmupTick               77000                       # The tick when the warmup percentage was hit. (Tick)
system.cpu.icache.tags.occupancies::cpu.inst   406.922908                       # Average occupied blocks per tick, per requestor ((Count/Tick))
system.cpu.icache.tags.avgOccs::cpu.inst     0.794771                       # Average percentage of cache occupancy ((Ratio/Tick))
system.cpu.icache.tags.avgOccs::total        0.794771                       # Average percentage of cache occupancy ((Ratio/Tick))
system.cpu.icache.tags.occupanciesTaskId::1024          481                       # Occupied blocks per task id (Count)
system.cpu.icache.tags.ageTaskId_1024::0          149                       # Occupied blocks per task id, per block age (Count)
system.cpu.icache.tags.ageTaskId_1024::1          115                       # Occupied blocks per task id, per block age (Count)
system.cpu.icache.tags.ageTaskId_1024::2            3                       # Occupied blocks per task id, per block age (Count)
system.cpu.icache.tags.ageTaskId_1024::4          214                       # Occupied blocks per task id, per block age (Count)
system.cpu.icache.tags.ratioOccsTaskId::1024     0.939453                       # Ratio of occupied blocks and all blocks, per task id (Ratio)
system.cpu.icache.tags.tagAccesses            9833493                       # Number of tag accesses (Count)
system.cpu.icache.tags.dataAccesses           9833493                       # Number of data accesses (Count)
system.cpu.icache.tags.power_state.pwrStateResidencyTicks::UNDEFINED  22514738000                       # Cumulative time (in ticks) in various power states (Tick)
system.cpu.iew.idleCycles                           0                       # Number of cycles IEW is idle (Cycle)
[...]
system.mem_ctrls.dram.bwRead::cpu.inst        2919332                       # Total read bandwidth from this memory ((Byte/Second))
system.mem_ctrls.dram.bwRead::cpu.data     1839833091                       # Total read bandwidth from this memory ((Byte/Second))
system.mem_ctrls.dram.bwRead::total        1842752423                       # Total read bandwidth from this memory ((Byte/Second))
system.mem_ctrls.dram.bwInstRead::cpu.inst      2919332                       # Instruction read bandwidth from this memory ((Byte/Second))
system.mem_ctrls.dram.bwInstRead::total       2919332                       # Instruction read bandwidth from this memory ((Byte/Second))
system.mem_ctrls.dram.bwWrite::writebacks     63369691                       # Write bandwidth from this memory ((Byte/Second))
system.mem_ctrls.dram.bwWrite::total         63369691                       # Write bandwidth from this memory ((Byte/Second))
system.mem_ctrls.dram.bwTotal::writebacks     63369691                       # Total bandwidth to/from this memory ((Byte/Second))
system.mem_ctrls.dram.bwTotal::cpu.inst       2919332                       # Total bandwidth to/from this memory ((Byte/Second))
system.mem_ctrls.dram.bwTotal::cpu.data    1839833091                       # Total bandwidth to/from this memory ((Byte/Second))
system.mem_ctrls.dram.bwTotal::total       1906122114                       # Total bandwidth to/from this memory ((Byte/Second))
system.mem_ctrls.dram.readBursts               621494                       # Number of DRAM read bursts (Count)
system.mem_ctrls.dram.writeBursts                7970                       # Number of DRAM write bursts (Count)
system.mem_ctrls.dram.perBankRdBursts::0         8946                       # Per bank write bursts (Count)
system.mem_ctrls.dram.perBankRdBursts::1         2159                       # Per bank write bursts (Count)
system.mem_ctrls.dram.perBankRdBursts::2         1303                       # Per bank write bursts (Count)
system.mem_ctrls.dram.perBankRdBursts::3         1878                       # Per bank write bursts (Count)
system.mem_ctrls.dram.perBankRdBursts::4        44246                       # Per bank write bursts (Count)
system.mem_ctrls.dram.perBankRdBursts::5       145289                       # Per bank write bursts (Count)
system.mem_ctrls.dram.perBankRdBursts::6       145360                       # Per bank write bursts (Count)
system.mem_ctrls.dram.perBankRdBursts::7       145082                       # Per bank write bursts (Count)
system.mem_ctrls.dram.perBankRdBursts::8       104370                       # Per bank write bursts (Count)
system.mem_ctrls.dram.perBankRdBursts::9         3386                       # Per bank write bursts (Count)
system.mem_ctrls.dram.perBankRdBursts::10         3252                       # Per bank write bursts (Count)
system.mem_ctrls.dram.perBankRdBursts::11         2872                       # Per bank write bursts (Count)
system.mem_ctrls.dram.perBankRdBursts::12         2869                       # Per bank write bursts (Count)
system.mem_ctrls.dram.perBankRdBursts::13         9435                       # Per bank write bursts (Count)
system.mem_ctrls.dram.perBankRdBursts::14          558                       # Per bank write bursts (Count)
system.mem_ctrls.dram.perBankRdBursts::15          489                       # Per bank write bursts (Count)
system.mem_ctrls.dram.perBankWrBursts::0          347                       # Per bank write bursts (Count)
system.mem_ctrls.dram.perBankWrBursts::1          380                       # Per bank write bursts (Count)
system.mem_ctrls.dram.perBankWrBursts::2          909                       # Per bank write bursts (Count)
system.mem_ctrls.dram.perBankWrBursts::3          338                       # Per bank write bursts (Count)
system.mem_ctrls.dram.perBankWrBursts::4          531                       # Per bank write bursts (Count)
system.mem_ctrls.dram.perBankWrBursts::5          577                       # Per bank write bursts (Count)
system.mem_ctrls.dram.perBankWrBursts::6          587                       # Per bank write bursts (Count)
system.mem_ctrls.dram.perBankWrBursts::7          568                       # Per bank write bursts (Count)
system.mem_ctrls.dram.perBankWrBursts::8          505                       # Per bank write bursts (Count)
system.mem_ctrls.dram.perBankWrBursts::9          537                       # Per bank write bursts (Count)
system.mem_ctrls.dram.perBankWrBursts::10          521                       # Per bank write bursts (Count)
system.mem_ctrls.dram.perBankWrBursts::11          544                       # Per bank write bursts (Count)
system.mem_ctrls.dram.perBankWrBursts::12          454                       # Per bank write bursts (Count)
system.mem_ctrls.dram.perBankWrBursts::13          389                       # Per bank write bursts (Count)
system.mem_ctrls.dram.perBankWrBursts::14          400                       # Per bank write bursts (Count)
system.mem_ctrls.dram.perBankWrBursts::15          383                       # Per bank write bursts (Count)
system.mem_ctrls.dram.totQLat              2420292250                       # Total ticks spent queuing (Tick)
system.mem_ctrls.dram.totBusLat            3107470000                       # Total ticks spent in databus transfers (Tick)
system.mem_ctrls.dram.totMemAccLat        14073304750                       # Total ticks spent from burst creation until serviced by the DRAM (Tick)
system.mem_ctrls.dram.avgQLat                 3894.31                       # Average queueing delay per DRAM burst ((Tick/Count))
system.mem_ctrls.dram.avgBusLat               5000.00                       # Average bus latency per DRAM burst ((Tick/Count))
system.mem_ctrls.dram.avgMemAccLat           22644.31                       # Average memory access latency per DRAM burst ((Tick/Count))
system.mem_ctrls.dram.readRowHits              572516                       # Number of row buffer hits during reads (Count)
system.mem_ctrls.dram.writeRowHits               7185                       # Number of row buffer hits during writes (Count)
system.mem_ctrls.dram.readRowHitRate            92.12                       # Row buffer hit rate for reads (Ratio)
system.mem_ctrls.dram.writeRowHitRate           90.15                       # Row buffer hit rate for writes (Ratio)
system.mem_ctrls.dram.bytesPerActivate::samples        49748                       # Bytes accessed per row activation (Byte)
system.mem_ctrls.dram.bytesPerActivate::mean   809.707807                       # Bytes accessed per row activation (Byte)
system.mem_ctrls.dram.bytesPerActivate::gmean   650.850281                       # Bytes accessed per row activation (Byte)
system.mem_ctrls.dram.bytesPerActivate::stdev   349.778984                       # Bytes accessed per row activation (Byte)
system.mem_ctrls.dram.bytesPerActivate::0-127         3315      6.66%      6.66% # Bytes accessed per row activation (Byte)
system.mem_ctrls.dram.bytesPerActivate::128-255         3033      6.10%     12.76% # Bytes accessed per row activation (Byte)
system.mem_ctrls.dram.bytesPerActivate::256-383         3672      7.38%     20.14% # Bytes accessed per row activation (Byte)
system.mem_ctrls.dram.bytesPerActivate::384-511         1382      2.78%     22.92% # Bytes accessed per row activation (Byte)
system.mem_ctrls.dram.bytesPerActivate::512-639          957      1.92%     24.84% # Bytes accessed per row activation (Byte)
system.mem_ctrls.dram.bytesPerActivate::640-767          793      1.59%     26.44% # Bytes accessed per row activation (Byte)
system.mem_ctrls.dram.bytesPerActivate::768-895         1576      3.17%     29.61% # Bytes accessed per row activation (Byte)
system.mem_ctrls.dram.bytesPerActivate::896-1023         1122      2.26%     31.86% # Bytes accessed per row activation (Byte)
system.mem_ctrls.dram.bytesPerActivate::1024-1151        33898     68.14%    100.00% # Bytes accessed per row activation (Byte)
system.mem_ctrls.dram.bytesPerActivate::total        49748                       # Bytes accessed per row activation (Byte)
system.mem_ctrls.dram.bytesRead              39775616                       # Total bytes read (Byte)
system.mem_ctrls.dram.bytesWritten             510080                       # Total bytes written (Byte)
system.mem_ctrls.dram.avgRdBW             1766.647962                       # Average DRAM read bandwidth in MiBytes/s ((Byte/Second))
system.mem_ctrls.dram.avgWrBW               22.655382                       # Average DRAM write bandwidth in MiBytes/s ((Byte/Second))
system.mem_ctrls.dram.peakBW                 12800.00                       # Theoretical peak bandwidth in MiByte/s ((Byte/Second))
system.mem_ctrls.dram.busUtil                   13.98                       # Data bus utilization in percentage (Ratio)
system.mem_ctrls.dram.busUtilRead               13.80                       # Data bus utilization in percentage for reads (Ratio)
system.mem_ctrls.dram.busUtilWrite               0.18                       # Data bus utilization in percentage for writes (Ratio)
system.mem_ctrls.dram.pageHitRate               92.09                       # Row buffer hit rate, read and write combined (Ratio)
system.mem_ctrls.dram.power_state.pwrStateResidencyTicks::UNDEFINED  22514738000                       # Cumulative time (in ticks) in various power states (Tick)
system.mem_ctrls.dram.rank0.actEnergy       265058220                       # Energy for activate commands per rank (pJ) (Joule)
system.mem_ctrls.dram.rank0.preEnergy       140855220                       # Energy for precharge commands per rank (pJ) (Joule)
system.mem_ctrls.dram.rank0.readEnergy     3529037820                       # Energy for read commands per rank (pJ) (Joule)
system.mem_ctrls.dram.rank0.writeEnergy      22117140                       # Energy for write commands per rank (pJ) (Joule)
system.mem_ctrls.dram.rank0.refreshEnergy 1776924240.000000                       # Energy for refresh commands per rank (pJ) (Joule)
system.mem_ctrls.dram.rank0.actBackEnergy  10083964050                       # Energy for active background per rank (pJ) (Joule)
system.mem_ctrls.dram.rank0.preBackEnergy    153900480                       # Energy for precharge background per rank (pJ) (Joule)
system.mem_ctrls.dram.rank0.actPowerDownEnergy            0                       # Energy for active power-down per rank (pJ) (Joule)
system.mem_ctrls.dram.rank0.prePowerDownEnergy            0                       # Energy for precharge power-down per rank (pJ) (Joule)
system.mem_ctrls.dram.rank0.selfRefreshEnergy            0                       # Energy for self refresh per rank (pJ) (Joule)
system.mem_ctrls.dram.rank0.totalEnergy   15971857170                       # Total energy per rank (pJ) (Joule)
system.mem_ctrls.dram.rank0.averagePower   709.395649                       # Core power per rank (mW) (Watt)
system.mem_ctrls.dram.rank0.totalIdleTime            0                       # Total Idle time Per DRAM Rank (Tick)
system.mem_ctrls.dram.rank0.pwrStateTime::IDLE    305854500                       # Time in different power states (Tick)
system.mem_ctrls.dram.rank0.pwrStateTime::REF    751660000                       # Time in different power states (Tick)
system.mem_ctrls.dram.rank0.pwrStateTime::SREF            0                       # Time in different power states (Tick)
system.mem_ctrls.dram.rank0.pwrStateTime::PRE_PDN            0                       # Time in different power states (Tick)
system.mem_ctrls.dram.rank0.pwrStateTime::ACT  21457223500                       # Time in different power states (Tick)
system.mem_ctrls.dram.rank0.pwrStateTime::ACT_PDN            0                       # Time in different power states (Tick)
system.mem_ctrls.dram.rank1.actEnergy        90249600                       # Energy for activate commands per rank (pJ) (Joule)
system.mem_ctrls.dram.rank1.preEnergy        47938440                       # Energy for precharge commands per rank (pJ) (Joule)
system.mem_ctrls.dram.rank1.readEnergy      908429340                       # Energy for read commands per rank (pJ) (Joule)
system.mem_ctrls.dram.rank1.writeEnergy      19486260                       # Energy for write commands per rank (pJ) (Joule)
system.mem_ctrls.dram.rank1.refreshEnergy 1776924240.000000                       # Energy for refresh commands per rank (pJ) (Joule)
system.mem_ctrls.dram.rank1.actBackEnergy   9380486010                       # Energy for active background per rank (pJ) (Joule)
system.mem_ctrls.dram.rank1.preBackEnergy    746303040                       # Energy for precharge background per rank (pJ) (Joule)
system.mem_ctrls.dram.rank1.actPowerDownEnergy            0                       # Energy for active power-down per rank (pJ) (Joule)
system.mem_ctrls.dram.rank1.prePowerDownEnergy            0                       # Energy for precharge power-down per rank (pJ) (Joule)
system.mem_ctrls.dram.rank1.selfRefreshEnergy            0                       # Energy for self refresh per rank (pJ) (Joule)
system.mem_ctrls.dram.rank1.totalEnergy   12969816930                       # Total energy per rank (pJ) (Joule)
system.mem_ctrls.dram.rank1.averagePower   576.058977                       # Core power per rank (mW) (Watt)
system.mem_ctrls.dram.rank1.totalIdleTime            0                       # Total Idle time Per DRAM Rank (Tick)
system.mem_ctrls.dram.rank1.pwrStateTime::IDLE   1849852250                       # Time in different power states (Tick)
system.mem_ctrls.dram.rank1.pwrStateTime::REF    751660000                       # Time in different power states (Tick)
system.mem_ctrls.dram.rank1.pwrStateTime::SREF            0                       # Time in different power states (Tick)
system.mem_ctrls.dram.rank1.pwrStateTime::PRE_PDN            0                       # Time in different power states (Tick)
system.mem_ctrls.dram.rank1.pwrStateTime::ACT  19913225750                       # Time in different power states (Tick)
system.mem_ctrls.dram.rank1.pwrStateTime::ACT_PDN            0                       # Time in different power states (Tick)
system.mem_ctrls.power_state.pwrStateResidencyTicks::UNDEFINED  22514738000                       # Cumulative time (in ticks) in various power states (Tick)
system.membus.transDist::ReadResp              632492                       # Transaction distribution (Count)
system.membus.transDist::WritebackDirty         22293                       # Transaction distribution (Count)
system.membus.transDist::WritebackClean           546                       # Transaction distribution (Count)
system.membus.transDist::CleanEvict            627605                       # Transaction distribution (Count)
system.membus.transDist::ReadExReq              15775                       # Transaction distribution (Count)
system.membus.transDist::ReadExResp             15775                       # Transaction distribution (Count)
system.membus.transDist::ReadCleanReq            1028                       # Transaction distribution (Count)
system.membus.transDist::ReadSharedReq         631465                       # Transaction distribution (Count)
system.membus.transDist::InvalidateReq           2722                       # Transaction distribution (Count)
system.membus.pktCount_system.cpu.icache.mem_side_port::system.mem_ctrls.port         2601                       # Packet count per connected requestor and responder (Count)
system.membus.pktCount_system.cpu.dcache.mem_side_port::system.mem_ctrls.port      1947100                       # Packet count per connected requestor and responder (Count)
system.membus.pktCount::total                 1949701                       # Packet count per connected requestor and responder (Count)
system.membus.pktSize_system.cpu.icache.mem_side_port::system.mem_ctrls.port       100672                       # Cumulative packet size per connected requestor and responder (Byte)
system.membus.pktSize_system.cpu.dcache.mem_side_port::system.mem_ctrls.port     42850112                       # Cumulative packet size per connected requestor and responder (Byte)
system.membus.pktSize::total                 42950784                       # Cumulative packet size per connected requestor and responder (Byte)
system.membus.snoops                                0                       # Total snoops (Count)
system.membus.snoopTraffic                          0                       # Total snoop traffic (Byte)
system.membus.snoopFanout::samples             650990                       # Request fanout histogram (Count)
system.membus.snoopFanout::mean              0.000005                       # Request fanout histogram (Count)
system.membus.snoopFanout::stdev             0.002147                       # Request fanout histogram (Count)
system.membus.snoopFanout::underflows               0      0.00%      0.00% # Request fanout histogram (Count)
system.membus.snoopFanout::0                   650987    100.00%    100.00% # Request fanout histogram (Count)
system.membus.snoopFanout::1                        3      0.00%    100.00% # Request fanout histogram (Count)
system.membus.snoopFanout::2                        0      0.00%    100.00% # Request fanout histogram (Count)
system.membus.snoopFanout::overflows                0      0.00%    100.00% # Request fanout histogram (Count)
system.membus.snoopFanout::min_value                0                       # Request fanout histogram (Count)
system.membus.snoopFanout::max_value                1                       # Request fanout histogram (Count)
system.membus.snoopFanout::total               650990                       # Request fanout histogram (Count)
system.membus.power_state.pwrStateResidencyTicks::UNDEFINED  22514738000                       # Cumulative time (in ticks) in various power states (Tick)
system.membus.reqLayer0.occupancy          1624048500                       # Layer occupancy (ticks) (Tick)
system.membus.reqLayer0.utilization               0.1                       # Layer utilization (Ratio)
system.membus.respLayer1.occupancy            5449250                       # Layer occupancy (ticks) (Tick)
system.membus.respLayer1.utilization              0.0                       # Layer utilization (Ratio)
system.membus.respLayer2.occupancy         3396368250                       # Layer occupancy (ticks) (Tick)
system.membus.respLayer2.utilization              0.2                       # Layer utilization (Ratio)
system.membus.snoop_filter.totRequests        1301434                       # Total number of requests made to the snoop filter. (Count)
system.membus.snoop_filter.hitSingleRequests       650445                       # Number of requests hitting in the snoop filter with a single holder of the requested data. (Count)
system.membus.snoop_filter.hitMultiRequests            2                       # Number of requests hitting in the snoop filter with multiple (>1) holders of the requested data. (Count)
system.membus.snoop_filter.totSnoops                0                       # Total number of snoops made to the snoop filter. (Count)
system.membus.snoop_filter.hitSingleSnoops            0                       # Number of snoops hitting in the snoop filter with a single holder of the requested data. (Count)
system.membus.snoop_filter.hitMultiSnoops            0                       # Number of snoops hitting in the snoop filter with multiple (>1) holders of the requested data. (Count)
system.voltage_domain.voltage                       1                       # Voltage in Volts (Volt)
system.workload.inst.arm                            0                       # number of arm instructions executed (Count)
system.workload.inst.quiesce                        0                       # number of quiesce instructions executed (Count)

---------- End Simulation Statistics   ----------
