
---------- Begin Simulation Statistics ----------
simSeconds                                   0.021788                       # Number of seconds simulated (Second)
simTicks                                  21787843500                       # Number of ticks simulated (Tick)
finalTick                                 21787843500                       # Number of ticks from beginning of simulation (restored from checkpoints and never reset) (Tick)
simFreq                                  1000000000000                       # The number of ticks per simulated second ((Tick/Second))
hostSeconds                                     58.53                       # Real time elapsed on the host (Second)
hostTickRate                                372236559                       # The number of ticks simulated per host second (ticks/s) ((Tick/Second))
hostMemory                                     672460                       # Number of bytes of host memory used (Byte)
simInsts                                     37273609                       # Number of instructions simulated (Count)
simOps                                       38427141                       # Number of ops (including micro ops) simulated (Count)
hostInstRate                                   636804                       # Simulator instruction rate (inst/s) ((Count/Second))
hostOpRate                                     656511                       # Simulator op (including micro ops) rate (op/s) ((Count/Second))
system.clk_domain.clock                          1000                       # Clock period in ticks (Tick)
system.cpu.numCycles                         43575688                       # Number of cpu cycles simulated (Cycle)
system.cpu.numWorkItemsStarted                      0                       # Number of work items this cpu started (Count)
system.cpu.numWorkItemsCompleted                    0                       # Number of work items this cpu completed (Count)
system.cpu.instsAdded                        41767095                       # Number of instructions added to the IQ (excludes non-spec) (Count)
system.cpu.nonSpecInstsAdded                      254                       # Number of non-speculative instructions added to the IQ (Count)
system.cpu.instsIssued                       40830055                       # Number of instructions issued (Count)
system.cpu.squashedInstsIssued                   4631                       # Number of squashed instructions issued (Count)
system.cpu.squashedInstsExamined              3340207                       # Number of squashed instructions iterated over during squash; mainly for profiling (Count)
system.cpu.squashedOperandsExamined           2474742                       # Number of squashed operands that are examined and possibly removed from graph (Count)
system.cpu.squashedNonSpecRemoved                  41                       # Number of squashed non-spec instructions that were removed (Count)
system.cpu.numIssuedDist::samples            43521808                       # Number of insts issued each cycle (Count)
system.cpu.numIssuedDist::mean               0.938152                       # Number of insts issued each cycle (Count)
system.cpu.numIssuedDist::stdev              1.490334                       # Number of insts issued each cycle (Count)
system.cpu.numIssuedDist::underflows                0      0.00%      0.00% # Number of insts issued each cycle (Count)
system.cpu.numIssuedDist::0                  26155949     60.10%     60.10% # Number of insts issued each cycle (Count)
system.cpu.numIssuedDist::1                   6781458     15.58%     75.68% # Number of insts issued each cycle (Count)
system.cpu.numIssuedDist::2                   4104234      9.43%     85.11% # Number of insts issued each cycle (Count)
system.cpu.numIssuedDist::3                   2927923      6.73%     91.84% # Number of insts issued each cycle (Count)
system.cpu.numIssuedDist::4                   1758549      4.04%     95.88% # Number of insts issued each cycle (Count)
system.cpu.numIssuedDist::5                   1069546      2.46%     98.34% # Number of insts issued each cycle (Count)
system.cpu.numIssuedDist::6                    490769      1.13%     99.46% # Number of insts issued each cycle (Count)
system.cpu.numIssuedDist::7                    137220      0.32%     99.78% # Number of insts issued each cycle (Count)
system.cpu.numIssuedDist::8                     96160      0.22%    100.00% # Number of insts issued each cycle (Count)
system.cpu.numIssuedDist::overflows                 0      0.00%    100.00% # Number of insts issued each cycle (Count)
system.cpu.numIssuedDist::min_value                 0                       # Number of insts issued each cycle (Count)
system.cpu.numIssuedDist::max_value                 8                       # Number of insts issued each cycle (Count)
system.cpu.numIssuedDist::total              43521808                       # Number of insts issued each cycle (Count)
system.cpu.statFuBusy::No_OpClass                   0      0.00%      0.00% # attempts to use FU when none available (Count)
system.cpu.statFuBusy::IntAlu                   45909      8.33%      8.33% # attempts to use FU when none available (Count)
system.cpu.statFuBusy::IntMult                   2478      0.45%      8.78% # attempts to use FU when none available (Count)
system.cpu.statFuBusy::IntDiv                       0      0.00%      8.78% # attempts to use FU when none available (Count)
system.cpu.statFuBusy::FloatAdd                     0      0.00%      8.78% # attempts to use FU when none available (Count)
system.cpu.statFuBusy::FloatCmp                     0      0.00%      8.78% # attempts to use FU when none available (Count)
system.cpu.statFuBusy::FloatCvt                     0      0.00%      8.78% # attempts to use FU when none available (Count)
system.cpu.statFuBusy::FloatMult                    0      0.00%      8.78% # attempts to use FU when none available (Count)
system.cpu.statFuBusy::FloatMultAcc                 0      0.00%      8.78% # attempts to use FU when none available (Count)
system.cpu.statFuBusy::FloatDiv                     0      0.00%      8.78% # attempts to use FU when none available (Count)
system.cpu.statFuBusy::FloatMisc                    0      0.00%      8.78% # attempts to use FU when none available (Count)
system.cpu.statFuBusy::FloatSqrt                    0      0.00%      8.78% # attempts to use FU when none available (Count)
system.cpu.statFuBusy::SimdAdd                      0      0.00%      8.78% # attempts to use FU when none available (Count)
system.cpu.statFuBusy::SimdAddAcc                   0      0.00%      8.78% # attempts to use FU when none available (Count)
system.cpu.statFuBusy::SimdAlu                     25      0.00%      8.78% # attempts to use FU when none available (Count)
system.cpu.statFuBusy::SimdCmp                   2228      0.40%      9.18% # attempts to use FU when none available (Count)
system.cpu.statFuBusy::SimdCvt                      0      0.00%      9.18% # attempts to use FU when none available (Count)
system.cpu.statFuBusy::SimdMisc                     0      0.00%      9.18% # attempts to use FU when none available (Count)
system.cpu.statFuBusy::SimdMult                     0      0.00%      9.18% # attempts to use FU when none available (Count)
system.cpu.statFuBusy::SimdMultAcc                  0      0.00%      9.18% # attempts to use FU when none available (Count)
system.cpu.statFuBusy::SimdShift                    0      0.00%      9.18% # attempts to use FU when none available (Count)
system.cpu.statFuBusy::SimdShiftAcc                 0      0.00%      9.18% # attempts to use FU when none available (Count)
system.cpu.statFuBusy::SimdDiv                      0      0.00%      9.18% # attempts to use FU when none available (Count)
system.cpu.statFuBusy::SimdSqrt                     0      0.00%      9.18% # attempts to use FU when none available (Count)
system.cpu.statFuBusy::SimdFloatAdd                 0      0.00%      9.18% # attempts to use FU when none available (Count)
system.cpu.statFuBusy::SimdFloatAlu                 0      0.00%      9.18% # attempts to use FU when none available (Count)
system.cpu.statFuBusy::SimdFloatCmp                 0      0.00%      9.18% # attempts to use FU when none available (Count)
system.cpu.statFuBusy::SimdFloatCvt                 0      0.00%      9.18% # attempts to use FU when none available (Count)
system.cpu.statFuBusy::SimdFloatDiv                 0      0.00%      9.18% # attempts to use FU when none available (Count)
system.cpu.statFuBusy::SimdFloatMisc                0      0.00%      9.18% # attempts to use FU when none available (Count)
system.cpu.statFuBusy::SimdFloatMult                0      0.00%      9.18% # attempts to use FU when none available (Count)
system.cpu.statFuBusy::SimdFloatMultAcc             0      0.00%      9.18% # attempts to use FU when none available (Count)
system.cpu.statFuBusy::SimdFloatSqrt                0      0.00%      9.18% # attempts to use FU when none available (Count)
system.cpu.statFuBusy::SimdReduceAdd                0      0.00%      9.18% # attempts to use FU when none available (Count)
system.cpu.statFuBusy::SimdReduceAlu                0      0.00%      9.18% # attempts to use FU when none available (Count)
system.cpu.statFuBusy::SimdReduceCmp                0      0.00%      9.18% # attempts to use FU when none available (Count)
system.cpu.statFuBusy::SimdFloatReduceAdd            0      0.00%      9.18% # attempts to use FU when none available (Count)
system.cpu.statFuBusy::SimdFloatReduceCmp            0      0.00%      9.18% # attempts to use FU when none available (Count)
system.cpu.statFuBusy::SimdAes                      0      0.00%      9.18% # attempts to use FU when none available (Count)
system.cpu.statFuBusy::SimdAesMix                   0      0.00%      9.18% # attempts to use FU when none available (Count)
system.cpu.statFuBusy::SimdSha1Hash                 0      0.00%      9.18% # attempts to use FU when none available (Count)
system.cpu.statFuBusy::SimdSha1Hash2                0      0.00%      9.18% # attempts to use FU when none available (Count)
system.cpu.statFuBusy::SimdSha256Hash               0      0.00%      9.18% # attempts to use FU when none available (Count)
system.cpu.statFuBusy::SimdSha256Hash2              0      0.00%      9.18% # attempts to use FU when none available (Count)
system.cpu.statFuBusy::SimdShaSigma2                0      0.00%      9.18% # attempts to use FU when none available (Count)
system.cpu.statFuBusy::SimdShaSigma3                0      0.00%      9.18% # attempts to use FU when none available (Count)
system.cpu.statFuBusy::SimdPredAlu                  0      0.00%      9.18% # attempts to use FU when none available (Count)
system.cpu.statFuBusy::MemRead                 436583     79.18%     88.37% # attempts to use FU when none available (Count)
system.cpu.statFuBusy::MemWrite                 64143     11.63%    100.00% # attempts to use FU when none available (Count)
system.cpu.statFuBusy::FloatMemRead                 0      0.00%    100.00% # attempts to use FU when none available (Count)
system.cpu.statFuBusy::FloatMemWrite                0      0.00%    100.00% # attempts to use FU when none available (Count)
system.cpu.statFuBusy::IprAccess                    0      0.00%    100.00% # attempts to use FU when none available (Count)
system.cpu.statFuBusy::InstPrefetch                 0      0.00%    100.00% # attempts to use FU when none available (Count)
system.cpu.statIssuedInstType_0::No_OpClass        13657      0.03%      0.03% # Number of instructions issued per FU type, per thread (Count)
system.cpu.statIssuedInstType_0::IntAlu      23648467     57.92%     57.95% # Number of instructions issued per FU type, per thread (Count)
system.cpu.statIssuedInstType_0::IntMult        43872      0.11%     58.06% # Number of instructions issued per FU type, per thread (Count)
system.cpu.statIssuedInstType_0::IntDiv         20662      0.05%     58.11% # Number of instructions issued per FU type, per thread (Count)
system.cpu.statIssuedInstType_0::FloatAdd      1159968      2.84%     60.95% # Number of instructions issued per FU type, per thread (Count)
system.cpu.statIssuedInstType_0::FloatCmp       569295      1.39%     62.35% # Number of instructions issued per FU type, per thread (Count)
system.cpu.statIssuedInstType_0::FloatCvt            0      0.00%     62.35% # Number of instructions issued per FU type, per thread (Count)
system.cpu.statIssuedInstType_0::FloatMult            0      0.00%     62.35% # Number of instructions issued per FU type, per thread (Count)
system.cpu.statIssuedInstType_0::FloatMultAcc            0      0.00%     62.35% # Number of instructions issued per FU type, per thread (Count)
system.cpu.statIssuedInstType_0::FloatDiv            0      0.00%     62.35% # Number of instructions issued per FU type, per thread (Count)
system.cpu.statIssuedInstType_0::FloatMisc        30451      0.07%     62.42% # Number of instructions issued per FU type, per thread (Count)
system.cpu.statIssuedInstType_0::FloatSqrt            0      0.00%     62.42% # Number of instructions issued per FU type, per thread (Count)
system.cpu.statIssuedInstType_0::SimdAdd        32338      0.08%     62.50% # Number of instructions issued per FU type, per thread (Count)
system.cpu.statIssuedInstType_0::SimdAddAcc            0      0.00%     62.50% # Number of instructions issued per FU type, per thread (Count)
system.cpu.statIssuedInstType_0::SimdAlu        59589      0.15%     62.65% # Number of instructions issued per FU type, per thread (Count)
system.cpu.statIssuedInstType_0::SimdCmp        54526      0.13%     62.78% # Number of instructions issued per FU type, per thread (Count)
system.cpu.statIssuedInstType_0::SimdCvt            0      0.00%     62.78% # Number of instructions issued per FU type, per thread (Count)
system.cpu.statIssuedInstType_0::SimdMisc        36379      0.09%     62.87% # Number of instructions issued per FU type, per thread (Count)
system.cpu.statIssuedInstType_0::SimdMult            0      0.00%     62.87% # Number of instructions issued per FU type, per thread (Count)
system.cpu.statIssuedInstType_0::SimdMultAcc            0      0.00%     62.87% # Number of instructions issued per FU type, per thread (Count)
system.cpu.statIssuedInstType_0::SimdShift            0      0.00%     62.87% # Number of instructions issued per FU type, per thread (Count)
system.cpu.statIssuedInstType_0::SimdShiftAcc            0      0.00%     62.87% # Number of instructions issued per FU type, per thread (Count)
system.cpu.statIssuedInstType_0::SimdDiv            0      0.00%     62.87% # Number of instructions issued per FU type, per thread (Count)
system.cpu.statIssuedInstType_0::SimdSqrt            0      0.00%     62.87% # Number of instructions issued per FU type, per thread (Count)
system.cpu.statIssuedInstType_0::SimdFloatAdd            0      0.00%     62.87% # Number of instructions issued per FU type, per thread (Count)
system.cpu.statIssuedInstType_0::SimdFloatAlu            0      0.00%     62.87% # Number of instructions issued per FU type, per thread (Count)
system.cpu.statIssuedInstType_0::SimdFloatCmp            0      0.00%     62.87% # Number of instructions issued per FU type, per thread (Count)
system.cpu.statIssuedInstType_0::SimdFloatCvt            0      0.00%     62.87% # Number of instructions issued per FU type, per thread (Count)
system.cpu.statIssuedInstType_0::SimdFloatDiv            0      0.00%     62.87% # Number of instructions issued per FU type, per thread (Count)
system.cpu.statIssuedInstType_0::SimdFloatMisc            0      0.00%     62.87% # Number of instructions issued per FU type, per thread (Count)
system.cpu.statIssuedInstType_0::SimdFloatMult            0      0.00%     62.87% # Number of instructions issued per FU type, per thread (Count)
system.cpu.statIssuedInstType_0::SimdFloatMultAcc            0      0.00%     62.87% # Number of instructions issued per FU type, per thread (Count)
system.cpu.statIssuedInstType_0::SimdFloatSqrt            0      0.00%     62.87% # Number of instructions issued per FU type, per thread (Count)
system.cpu.statIssuedInstType_0::SimdReduceAdd            0      0.00%     62.87% # Number of instructions issued per FU type, per thread (Count)
system.cpu.statIssuedInstType_0::SimdReduceAlu            0      0.00%     62.87% # Number of instructions issued per FU type, per thread (Count)
system.cpu.statIssuedInstType_0::SimdReduceCmp            0      0.00%     62.87% # Number of instructions issued per FU type, per thread (Count)
system.cpu.statIssuedInstType_0::SimdFloatReduceAdd            0      0.00%     62.87% # Number of instructions issued per FU type, per thread (Count)
system.cpu.statIssuedInstType_0::SimdFloatReduceCmp            0      0.00%     62.87% # Number of instructions issued per FU type, per thread (Count)
system.cpu.statIssuedInstType_0::SimdAes            0      0.00%     62.87% # Number of instructions issued per FU type, per thread (Count)
system.cpu.statIssuedInstType_0::SimdAesMix            0      0.00%     62.87% # Number of instructions issued per FU type, per thread (Count)
system.cpu.statIssuedInstType_0::SimdSha1Hash            0      0.00%     62.87% # Number of instructions issued per FU type, per thread (Count)
system.cpu.statIssuedInstType_0::SimdSha1Hash2            0      0.00%     62.87% # Number of instructions issued per FU type, per thread (Count)
system.cpu.statIssuedInstType_0::SimdSha256Hash            0      0.00%     62.87% # Number of instructions issued per FU type, per thread (Count)
system.cpu.statIssuedInstType_0::SimdSha256Hash2            0      0.00%     62.87% # Number of instructions issued per FU type, per thread (Count)
system.cpu.statIssuedInstType_0::SimdShaSigma2            0      0.00%     62.87% # Number of instructions issued per FU type, per thread (Count)
system.cpu.statIssuedInstType_0::SimdShaSigma3            0      0.00%     62.87% # Number of instructions issued per FU type, per thread (Count)
system.cpu.statIssuedInstType_0::SimdPredAlu            0      0.00%     62.87% # Number of instructions issued per FU type, per thread (Count)
system.cpu.statIssuedInstType_0::MemRead     12747266     31.22%     94.09% # Number of instructions issued per FU type, per thread (Count)
system.cpu.statIssuedInstType_0::MemWrite      2413585      5.91%    100.00% # Number of instructions issued per FU type, per thread (Count)
system.cpu.statIssuedInstType_0::FloatMemRead            0      0.00%    100.00% # Number of instructions issued per FU type, per thread (Count)
system.cpu.statIssuedInstType_0::FloatMemWrite            0      0.00%    100.00% # Number of instructions issued per FU type, per thread (Count)
system.cpu.statIssuedInstType_0::IprAccess            0      0.00%    100.00% # Number of instructions issued per FU type, per thread (Count)
system.cpu.statIssuedInstType_0::InstPrefetch            0      0.00%    100.00% # Number of instructions issued per FU type, per thread (Count)
system.cpu.statIssuedInstType_0::total       40830055                       # Number of instructions issued per FU type, per thread (Count)
system.cpu.issueRate                         0.936992                       # Inst issue rate ((Count/Cycle))
system.cpu.fuBusy                              551366                       # FU busy when requested (Count)
system.cpu.fuBusyRate                        0.013504                       # FU busy rate (busy events/executed inst) ((Count/Count))
system.cpu.intInstQueueReads                114368489                       # Number of integer instruction queue reads (Count)
system.cpu.intInstQueueWrites                38737439                       # Number of integer instruction queue writes (Count)
system.cpu.intInstQueueWakeupAccesses        34933567                       # Number of integer instruction queue wakeup accesses (Count)
system.cpu.fpInstQueueReads                         0                       # Number of floating instruction queue reads (Count)
system.cpu.fpInstQueueWrites                        0                       # Number of floating instruction queue writes (Count)
system.cpu.fpInstQueueWakeupAccesses                0                       # Number of floating instruction queue wakeup accesses (Count)
system.cpu.vecInstQueueReads                 11369426                       # Number of vector instruction queue reads (Count)
system.cpu.vecInstQueueWrites                 6370551                       # Number of vector instruction queue writes (Count)
system.cpu.vecInstQueueWakeupAccesses         5643339                       # Number of vector instruction queue wakeup accesses (Count)
system.cpu.intAluAccesses                    35692814                       # Number of integer alu accesses (Count)
system.cpu.fpAluAccesses                            0                       # Number of floating point alu accesses (Count)
system.cpu.vecAluAccesses                     5674950                       # Number of vector alu accesses (Count)
system.cpu.numInsts                          40708977                       # Number of executed instructions (Count)
system.cpu.numLoadInsts                      12724632                       # Number of load instructions executed (Count)
system.cpu.numSquashedInsts                    121078                       # Number of squashed instructions skipped in execute (Count)
system.cpu.numSwp                                   0                       # Number of swp insts executed (Count)
system.cpu.numNop                               25863                       # Number of nop insts executed (Count)
system.cpu.numRefs                           15124182                       # Number of memory reference insts executed (Count)
system.cpu.numBranches                        3463593                       # Number of branches executed (Count)
system.cpu.numStoreInsts                      2399550                       # Number of stores executed (Count)
system.cpu.numRate                           0.934213                       # Inst execution rate ((Count/Cycle))
system.cpu.timesIdled                             680                       # Number of times that the entire CPU went into an idle state and unscheduled itself (Count)
system.cpu.idleCycles                           53880                       # Total number of cycles that the CPU has spent unscheduled due to idling (Cycle)
system.cpu.committedInsts                    37273609                       # Number of Instructions Simulated (Count)
system.cpu.committedOps                      38427141                       # Number of Ops (including micro ops) Simulated (Count)
system.cpu.cpi                               1.169076                       # CPI: Cycles Per Instruction ((Cycle/Count))
system.cpu.totalCpi                          1.169076                       # CPI: Total CPI of All Threads ((Cycle/Count))
system.cpu.ipc                               0.855376                       # IPC: Instructions Per Cycle ((Count/Cycle))
system.cpu.totalIpc                          0.855376                       # IPC: Total IPC of All Threads ((Count/Cycle))
system.cpu.intRegfileReads                   44175300                       # Number of integer regfile reads (Count)
system.cpu.intRegfileWrites                  29999908                       # Number of integer regfile writes (Count)
system.cpu.vecRegfileReads                    4425123                       # number of vector regfile reads (Count)
system.cpu.vecRegfileWrites                   4429334                       # number of vector regfile writes (Count)
system.cpu.ccRegfileReads                     9120564                       # number of cc regfile reads (Count)
system.cpu.ccRegfileWrites                    9593500                       # number of cc regfile writes (Count)
system.cpu.miscRegfileReads                  89447669                       # number of misc regfile reads (Count)
system.cpu.miscRegfileWrites                  1724966                       # number of misc regfile writes (Count)
system.cpu.MemDepUnit__0.insertedLoads       12927810                       # Number of loads inserted to the mem dependence unit. (Count)
system.cpu.MemDepUnit__0.insertedStores       2475854                       # Number of stores inserted to the mem dependence unit. (Count)
system.cpu.MemDepUnit__0.conflictingLoads      3274711                       # Number of conflicting loads. (Count)
system.cpu.MemDepUnit__0.conflictingStores       635019                       # Number of conflicting stores. (Count)
system.cpu.MemDepUnit__1.insertedLoads              0                       # Number of loads inserted to the mem dependence unit. (Count)
system.cpu.MemDepUnit__1.insertedStores             0                       # Number of stores inserted to the mem dependence unit. (Count)
system.cpu.MemDepUnit__1.conflictingLoads            0                       # Number of conflicting loads. (Count)
system.cpu.MemDepUnit__1.conflictingStores            0                       # Number of conflicting stores. (Count)
system.cpu.MemDepUnit__2.insertedLoads              0                       # Number of loads inserted to the mem dependence unit. (Count)
system.cpu.MemDepUnit__2.insertedStores             0                       # Number of stores inserted to the mem dependence unit. (Count)
system.cpu.MemDepUnit__2.conflictingLoads            0                       # Number of conflicting loads. (Count)
system.cpu.MemDepUnit__2.conflictingStores            0                       # Number of conflicting stores. (Count)
system.cpu.MemDepUnit__3.insertedLoads              0                       # Number of loads inserted to the mem dependence unit. (Count)
system.cpu.MemDepUnit__3.insertedStores             0                       # Number of stores inserted to the mem dependence unit. (Count)
system.cpu.MemDepUnit__3.conflictingLoads            0                       # Number of conflicting loads. (Count)
system.cpu.MemDepUnit__3.conflictingStores            0                       # Number of conflicting stores. (Count)
system.cpu.branchPred.lookups                 3726761                       # Number of BP lookups (Count)
system.cpu.branchPred.condPredicted           3257535                       # Number of conditional branches predicted (Count)
system.cpu.branchPred.condIncorrect             74697                       # Number of conditional branches incorrect (Count)
system.cpu.branchPred.BTBLookups              2676774                       # Number of BTB lookups (Count)
system.cpu.branchPred.BTBHits                 2674506                       # Number of BTB hits (Count)
system.cpu.branchPred.BTBHitRatio            0.999153                       # BTB Hit Ratio (Ratio)
system.cpu.branchPred.RASUsed                  149136                       # Number of times the RAS was used to get a target. (Count)
system.cpu.branchPred.RASIncorrect                  1                       # Number of incorrect RAS predictions. (Count)
system.cpu.branchPred.indirectLookups           35725                       # Number of indirect predictor lookups. (Count)
system.cpu.branchPred.indirectHits              34949                       # Number of indirect target hits. (Count)
system.cpu.branchPred.indirectMisses              776                       # Number of indirect misses. (Count)
system.cpu.branchPred.indirectMispredicted           92                       # Number of mispredicted indirect branches. (Count)
system.cpu.commit.commitSquashedInsts         3345210                       # The number of squashed insts skipped by commit (Count)
system.cpu.commit.commitNonSpecStalls             213                       # The number of times commit has been forced to stall to communicate backwards (Count)
system.cpu.commit.branchMispredicts             74286                       # The number of times a branch was mispredicted (Count)
system.cpu.commit.numCommittedDist::samples     43073204                       # Number of insts commited each cycle (Count)
system.cpu.commit.numCommittedDist::mean     0.892675                       # Number of insts commited each cycle (Count)
system.cpu.commit.numCommittedDist::stdev     2.159040                       # Number of insts commited each cycle (Count)
system.cpu.commit.numCommittedDist::underflows            0      0.00%      0.00% # Number of insts commited each cycle (Count)
system.cpu.commit.numCommittedDist::0        32442307     75.32%     75.32% # Number of insts commited each cycle (Count)
system.cpu.commit.numCommittedDist::1         4759341     11.05%     86.37% # Number of insts commited each cycle (Count)
system.cpu.commit.numCommittedDist::2         1259152      2.92%     89.29% # Number of insts commited each cycle (Count)
system.cpu.commit.numCommittedDist::3          435611      1.01%     90.30% # Number of insts commited each cycle (Count)
system.cpu.commit.numCommittedDist::4          243800      0.57%     90.87% # Number of insts commited each cycle (Count)
system.cpu.commit.numCommittedDist::5          676166      1.57%     92.44% # Number of insts commited each cycle (Count)
system.cpu.commit.numCommittedDist::6          160053      0.37%     92.81% # Number of insts commited each cycle (Count)
system.cpu.commit.numCommittedDist::7          224628      0.52%     93.33% # Number of insts commited each cycle (Count)
system.cpu.commit.numCommittedDist::8         2872146      6.67%    100.00% # Number of insts commited each cycle (Count)
system.cpu.commit.numCommittedDist::overflows            0      0.00%    100.00% # Number of insts commited each cycle (Count)
system.cpu.commit.numCommittedDist::min_value            0                       # Number of insts commited each cycle (Count)
system.cpu.commit.numCommittedDist::max_value            8                       # Number of insts commited each cycle (Count)
system.cpu.commit.numCommittedDist::total     43073204                       # Number of insts commited each cycle (Count)
system.cpu.commit.instsCommitted             37296858                       # Number of instructions committed (Count)
system.cpu.commit.opsCommitted               38450390                       # Number of ops (including micro ops) committed (Count)
system.cpu.commit.memRefs                    14169664                       # Number of memory references committed (Count)
system.cpu.commit.loads                      11863771                       # Number of loads committed (Count)
system.cpu.commit.amos                             20                       # Number of atomic instructions committed (Count)
system.cpu.commit.membars                          24                       # Number of memory barriers committed (Count)
system.cpu.commit.branches                    3343867                       # Number of branches committed (Count)
system.cpu.commit.vectorInstructions          5522233                       # Number of committed Vector instructions. (Count)
system.cpu.commit.floating                          0                       # Number of committed floating point instructions. (Count)
system.cpu.commit.integer                    33886787                       # Number of committed integer instructions. (Count)
system.cpu.commit.functionCalls                133220                       # Number of function calls committed. (Count)
system.cpu.commit.committedInstType_0::No_OpClass        13508      0.04%      0.04% # Class of committed instruction (Count)
system.cpu.commit.committedInstType_0::IntAlu     22276957     57.94%     57.97% # Class of committed instruction (Count)
system.cpu.commit.committedInstType_0::IntMult        43827      0.11%     58.09% # Class of committed instruction (Count)
system.cpu.commit.committedInstType_0::IntDiv        16515      0.04%     58.13% # Class of committed instruction (Count)
system.cpu.commit.committedInstType_0::FloatAdd      1155641      3.01%     61.13% # Class of committed instruction (Count)
system.cpu.commit.committedInstType_0::FloatCmp       569268      1.48%     62.62% # Class of committed instruction (Count)
system.cpu.commit.committedInstType_0::FloatCvt            0      0.00%     62.62% # Class of committed instruction (Count)
system.cpu.commit.committedInstType_0::FloatMult            0      0.00%     62.62% # Class of committed instruction (Count)
system.cpu.commit.committedInstType_0::FloatMultAcc            0      0.00%     62.62% # Class of committed instruction (Count)
system.cpu.commit.committedInstType_0::FloatDiv            0      0.00%     62.62% # Class of committed instruction (Count)
system.cpu.commit.committedInstType_0::FloatMisc        24242      0.06%     62.68% # Class of committed instruction (Count)
system.cpu.commit.committedInstType_0::FloatSqrt            0      0.00%     62.68% # Class of committed instruction (Count)
system.cpu.commit.committedInstType_0::SimdAdd        31905      0.08%     62.76% # Class of committed instruction (Count)
system.cpu.commit.committedInstType_0::SimdAddAcc            0      0.00%     62.76% # Class of committed instruction (Count)
system.cpu.commit.committedInstType_0::SimdAlu        58862      0.15%     62.91% # Class of committed instruction (Count)
system.cpu.commit.committedInstType_0::SimdCmp        53936      0.14%     63.05% # Class of committed instruction (Count)
system.cpu.commit.committedInstType_0::SimdCvt            0      0.00%     63.05% # Class of committed instruction (Count)
system.cpu.commit.committedInstType_0::SimdMisc        36065      0.09%     63.15% # Class of committed instruction (Count)
system.cpu.commit.committedInstType_0::SimdMult            0      0.00%     63.15% # Class of committed instruction (Count)
system.cpu.commit.committedInstType_0::SimdMultAcc            0      0.00%     63.15% # Class of committed instruction (Count)
system.cpu.commit.committedInstType_0::SimdShift            0      0.00%     63.15% # Class of committed instruction (Count)
system.cpu.commit.committedInstType_0::SimdShiftAcc            0      0.00%     63.15% # Class of committed instruction (Count)
system.cpu.commit.committedInstType_0::SimdDiv            0      0.00%     63.15% # Class of committed instruction (Count)
system.cpu.commit.committedInstType_0::SimdSqrt            0      0.00%     63.15% # Class of committed instruction (Count)
system.cpu.commit.committedInstType_0::SimdFloatAdd            0      0.00%     63.15% # Class of committed instruction (Count)
system.cpu.commit.committedInstType_0::SimdFloatAlu            0      0.00%     63.15% # Class of committed instruction (Count)
system.cpu.commit.committedInstType_0::SimdFloatCmp            0      0.00%     63.15% # Class of committed instruction (Count)
system.cpu.commit.committedInstType_0::SimdFloatCvt            0      0.00%     63.15% # Class of committed instruction (Count)
system.cpu.commit.committedInstType_0::SimdFloatDiv            0      0.00%     63.15% # Class of committed instruction (Count)
system.cpu.commit.committedInstType_0::SimdFloatMisc            0      0.00%     63.15% # Class of committed instruction (Count)
system.cpu.commit.committedInstType_0::SimdFloatMult            0      0.00%     63.15% # Class of committed instruction (Count)
system.cpu.commit.committedInstType_0::SimdFloatMultAcc            0      0.00%     63.15% # Class of committed instruction (Count)
system.cpu.commit.committedInstType_0::SimdFloatSqrt            0      0.00%     63.15% # Class of committed instruction (Count)
system.cpu.commit.committedInstType_0::SimdReduceAdd            0      0.00%     63.15% # Class of committed instruction (Count)
system.cpu.commit.committedInstType_0::SimdReduceAlu            0      0.00%     63.15% # Class of committed instruction (Count)
system.cpu.commit.committedInstType_0::SimdReduceCmp            0      0.00%     63.15% # Class of committed instruction (Count)
system.cpu.commit.committedInstType_0::SimdFloatReduceAdd            0      0.00%     63.15% # Class of committed instruction (Count)
system.cpu.commit.committedInstType_0::SimdFloatReduceCmp            0      0.00%     63.15% # Class of committed instruction (Count)
system.cpu.commit.committedInstType_0::SimdAes            0      0.00%     63.15% # Class of committed instruction (Count)
system.cpu.commit.committedInstType_0::SimdAesMix            0      0.00%     63.15% # Class of committed instruction (Count)
system.cpu.commit.committedInstType_0::SimdSha1Hash            0      0.00%     63.15% # Class of committed instruction (Count)
system.cpu.commit.committedInstType_0::SimdSha1Hash2            0      0.00%     63.15% # Class of committed instruction (Count)
system.cpu.commit.committedInstType_0::SimdSha256Hash            0      0.00%     63.15% # Class of committed instruction (Count)
system.cpu.commit.committedInstType_0::SimdSha256Hash2            0      0.00%     63.15% # Class of committed instruction (Count)
system.cpu.commit.committedInstType_0::SimdShaSigma2            0      0.00%     63.15% # Class of committed instruction (Count)
system.cpu.commit.committedInstType_0::SimdShaSigma3            0      0.00%     63.15% # Class of committed instruction (Count)
system.cpu.commit.committedInstType_0::SimdPredAlu            0      0.00%     63.15% # Class of committed instruction (Count)
system.cpu.commit.committedInstType_0::MemRead     11863771     30.85%     94.00% # Class of committed instruction (Count)
system.cpu.commit.committedInstType_0::MemWrite      2305893      6.00%    100.00% # Class of committed instruction (Count)
system.cpu.commit.committedInstType_0::FloatMemRead            0      0.00%    100.00% # Class of committed instruction (Count)
system.cpu.commit.committedInstType_0::FloatMemWrite            0      0.00%    100.00% # Class of committed instruction (Count)
system.cpu.commit.committedInstType_0::IprAccess            0      0.00%    100.00% # Class of committed instruction (Count)
system.cpu.commit.committedInstType_0::InstPrefetch            0      0.00%    100.00% # Class of committed instruction (Count)
system.cpu.commit.committedInstType_0::total     38450390                       # Class of committed instruction (Count)
system.cpu.commit.commitEligibleSamples       2872146                       # number cycles where commit BW limit reached (Cycle)
system.cpu.dcache.demandHits::cpu.data       10897005                       # number of demand (read+write) hits (Count)
system.cpu.dcache.demandHits::total          10897005                       # number of demand (read+write) hits (Count)
system.cpu.dcache.overallHits::cpu.data      10914188                       # number of overall hits (Count)
system.cpu.dcache.overallHits::total         10914188                       # number of overall hits (Count)
system.cpu.dcache.demandMisses::cpu.data       641645                       # number of demand (read+write) misses (Count)
system.cpu.dcache.demandMisses::total          641645                       # number of demand (read+write) misses (Count)
system.cpu.dcache.overallMisses::cpu.data       641651                       # number of overall misses (Count)
system.cpu.dcache.overallMisses::total         641651                       # number of overall misses (Count)
system.cpu.dcache.demandMissLatency::cpu.data  34465704394                       # number of demand (read+write) miss ticks (Tick)
system.cpu.dcache.demandMissLatency::total  34465704394                       # number of demand (read+write) miss ticks (Tick)
system.cpu.dcache.overallMissLatency::cpu.data  34465704394                       # number of overall miss ticks (Tick)
system.cpu.dcache.overallMissLatency::total  34465704394                       # number of overall miss ticks (Tick)
system.cpu.dcache.demandAccesses::cpu.data     11538650                       # number of demand (read+write) accesses (Count)
system.cpu.dcache.demandAccesses::total      11538650                       # number of demand (read+write) accesses (Count)
system.cpu.dcache.overallAccesses::cpu.data     11555839                       # number of overall (read+write) accesses (Count)
system.cpu.dcache.overallAccesses::total     11555839                       # number of overall (read+write) accesses (Count)
system.cpu.dcache.demandMissRate::cpu.data     0.055608                       # miss rate for demand accesses (Ratio)
system.cpu.dcache.demandMissRate::total      0.055608                       # miss rate for demand accesses (Ratio)
system.cpu.dcache.overallMissRate::cpu.data     0.055526                       # miss rate for overall accesses (Ratio)
system.cpu.dcache.overallMissRate::total     0.055526                       # miss rate for overall accesses (Ratio)
system.cpu.dcache.demandAvgMissLatency::cpu.data 53714.599808                       # average overall miss latency ((Cycle/Count))
system.cpu.dcache.demandAvgMissLatency::total 53714.599808                       # average overall miss latency ((Cycle/Count))
system.cpu.dcache.overallAvgMissLatency::cpu.data 53714.097530                       # average overall miss latency ((Cycle/Count))
system.cpu.dcache.overallAvgMissLatency::total 53714.097530                       # average overall miss latency ((Cycle/Count))
system.cpu.dcache.blockedCycles::no_mshrs        78745                       # number of cycles access was blocked (Cycle)
system.cpu.dcache.blockedCycles::no_targets           91                       # number of cycles access was blocked (Cycle)
system.cpu.dcache.blockedCauses::no_mshrs         3814                       # number of times access was blocked (Count)
system.cpu.dcache.blockedCauses::no_targets            1                       # number of times access was blocked (Count)
system.cpu.dcache.avgBlocked::no_mshrs      20.646303                       # average number of cycles each access was blocked ((Cycle/Count))
system.cpu.dcache.avgBlocked::no_targets           91                       # average number of cycles each access was blocked ((Cycle/Count))
system.cpu.dcache.writebacks::writebacks         7011                       # number of writebacks (Count)
system.cpu.dcache.writebacks::total              7011                       # number of writebacks (Count)
system.cpu.dcache.demandMshrHits::cpu.data        33571                       # number of demand (read+write) MSHR hits (Count)
system.cpu.dcache.demandMshrHits::total         33571                       # number of demand (read+write) MSHR hits (Count)
system.cpu.dcache.overallMshrHits::cpu.data        33571                       # number of overall MSHR hits (Count)
system.cpu.dcache.overallMshrHits::total        33571                       # number of overall MSHR hits (Count)
system.cpu.dcache.demandMshrMisses::cpu.data       608074                       # number of demand (read+write) MSHR misses (Count)
system.cpu.dcache.demandMshrMisses::total       608074                       # number of demand (read+write) MSHR misses (Count)
system.cpu.dcache.overallMshrMisses::cpu.data       608080                       # number of overall MSHR misses (Count)
system.cpu.dcache.overallMshrMisses::total       608080                       # number of overall MSHR misses (Count)
system.cpu.dcache.demandMshrMissLatency::cpu.data  32502890425                       # number of demand (read+write) MSHR miss ticks (Tick)
system.cpu.dcache.demandMshrMissLatency::total  32502890425                       # number of demand (read+write) MSHR miss ticks (Tick)
system.cpu.dcache.overallMshrMissLatency::cpu.data  32503355925                       # number of overall MSHR miss ticks (Tick)
system.cpu.dcache.overallMshrMissLatency::total  32503355925                       # number of overall MSHR miss ticks (Tick)
system.cpu.dcache.demandMshrMissRate::cpu.data     0.052699                       # mshr miss ratio for demand accesses (Ratio)
system.cpu.dcache.demandMshrMissRate::total     0.052699                       # mshr miss ratio for demand accesses (Ratio)
system.cpu.dcache.overallMshrMissRate::cpu.data     0.052621                       # mshr miss ratio for overall accesses (Ratio)
system.cpu.dcache.overallMshrMissRate::total     0.052621                       # mshr miss ratio for overall accesses (Ratio)
system.cpu.dcache.demandAvgMshrMissLatency::cpu.data 53452.195662                       # average overall mshr miss latency ((Cycle/Count))
system.cpu.dcache.demandAvgMshrMissLatency::total 53452.195662                       # average overall mshr miss latency ((Cycle/Count))
system.cpu.dcache.overallAvgMshrMissLatency::cpu.data 53452.433767                       # average overall mshr miss latency ((Cycle/Count))
system.cpu.dcache.overallAvgMshrMissLatency::total 53452.433767                       # average overall mshr miss latency ((Cycle/Count))
system.cpu.dcache.replacements                 607825                       # number of replacements (Count)
system.cpu.dcache.LoadLockedReq.hits::cpu.data           10                       # number of LoadLockedReq hits (Count)
system.cpu.dcache.LoadLockedReq.hits::total           10                       # number of LoadLockedReq hits (Count)
system.cpu.dcache.LoadLockedReq.accesses::cpu.data           10                       # number of LoadLockedReq accesses(hits+misses) (Count)
system.cpu.dcache.LoadLockedReq.accesses::total           10                       # number of LoadLockedReq accesses(hits+misses) (Count)
system.cpu.dcache.ReadReq.hits::cpu.data      8596627                       # number of ReadReq hits (Count)
system.cpu.dcache.ReadReq.hits::total         8596627                       # number of ReadReq hits (Count)
system.cpu.dcache.ReadReq.misses::cpu.data       636153                       # number of ReadReq misses (Count)
system.cpu.dcache.ReadReq.misses::total        636153                       # number of ReadReq misses (Count)
system.cpu.dcache.ReadReq.missLatency::cpu.data  34227799500                       # number of ReadReq miss ticks (Tick)
system.cpu.dcache.ReadReq.missLatency::total  34227799500                       # number of ReadReq miss ticks (Tick)
system.cpu.dcache.ReadReq.accesses::cpu.data      9232780                       # number of ReadReq accesses(hits+misses) (Count)
system.cpu.dcache.ReadReq.accesses::total      9232780                       # number of ReadReq accesses(hits+misses) (Count)
system.cpu.dcache.ReadReq.missRate::cpu.data     0.068902                       # miss rate for ReadReq accesses (Ratio)
system.cpu.dcache.ReadReq.missRate::total     0.068902                       # miss rate for ReadReq accesses (Ratio)
system.cpu.dcache.ReadReq.avgMissLatency::cpu.data 53804.351312                       # average ReadReq miss latency ((Tick/Count))
system.cpu.dcache.ReadReq.avgMissLatency::total 53804.351312                       # average ReadReq miss latency ((Tick/Count))
system.cpu.dcache.ReadReq.mshrHits::cpu.data        32765                       # number of ReadReq MSHR hits (Count)
system.cpu.dcache.ReadReq.mshrHits::total        32765                       # number of ReadReq MSHR hits (Count)
system.cpu.dcache.ReadReq.mshrMisses::cpu.data       603388                       # number of ReadReq MSHR misses (Count)
system.cpu.dcache.ReadReq.mshrMisses::total       603388                       # number of ReadReq MSHR misses (Count)
system.cpu.dcache.ReadReq.mshrMissLatency::cpu.data  32303483500                       # number of ReadReq MSHR miss ticks (Tick)
system.cpu.dcache.ReadReq.mshrMissLatency::total  32303483500                       # number of ReadReq MSHR miss ticks (Tick)
system.cpu.dcache.ReadReq.mshrMissRate::cpu.data     0.065353                       # mshr miss rate for ReadReq accesses (Ratio)
system.cpu.dcache.ReadReq.mshrMissRate::total     0.065353                       # mshr miss rate for ReadReq accesses (Ratio)
system.cpu.dcache.ReadReq.avgMshrMissLatency::cpu.data 53536.834508                       # average ReadReq mshr miss latency ((Tick/Count))
system.cpu.dcache.ReadReq.avgMshrMissLatency::total 53536.834508                       # average ReadReq mshr miss latency ((Tick/Count))
system.cpu.dcache.SoftPFReq.hits::cpu.data        17183                       # number of SoftPFReq hits (Count)
system.cpu.dcache.SoftPFReq.hits::total         17183                       # number of SoftPFReq hits (Count)
system.cpu.dcache.SoftPFReq.misses::cpu.data            6                       # number of SoftPFReq misses (Count)
system.cpu.dcache.SoftPFReq.misses::total            6                       # number of SoftPFReq misses (Count)
system.cpu.dcache.SoftPFReq.accesses::cpu.data        17189                       # number of SoftPFReq accesses(hits+misses) (Count)
system.cpu.dcache.SoftPFReq.accesses::total        17189                       # number of SoftPFReq accesses(hits+misses) (Count)
system.cpu.dcache.SoftPFReq.missRate::cpu.data     0.000349                       # miss rate for SoftPFReq accesses (Ratio)
system.cpu.dcache.SoftPFReq.missRate::total     0.000349                       # miss rate for SoftPFReq accesses (Ratio)
system.cpu.dcache.SoftPFReq.mshrMisses::cpu.data            6                       # number of SoftPFReq MSHR misses (Count)
system.cpu.dcache.SoftPFReq.mshrMisses::total            6                       # number of SoftPFReq MSHR misses (Count)
system.cpu.dcache.SoftPFReq.mshrMissLatency::cpu.data       465500                       # number of SoftPFReq MSHR miss ticks (Tick)
system.cpu.dcache.SoftPFReq.mshrMissLatency::total       465500                       # number of SoftPFReq MSHR miss ticks (Tick)
system.cpu.dcache.SoftPFReq.mshrMissRate::cpu.data     0.000349                       # mshr miss rate for SoftPFReq accesses (Ratio)
system.cpu.dcache.SoftPFReq.mshrMissRate::total     0.000349                       # mshr miss rate for SoftPFReq accesses (Ratio)
system.cpu.dcache.SoftPFReq.avgMshrMissLatency::cpu.data 77583.333333                       # average SoftPFReq mshr miss latency ((Tick/Count))
system.cpu.dcache.SoftPFReq.avgMshrMissLatency::total 77583.333333                       # average SoftPFReq mshr miss latency ((Tick/Count))
system.cpu.dcache.StoreCondReq.hits::cpu.data            4                       # number of StoreCondReq hits (Count)
system.cpu.dcache.StoreCondReq.hits::total            4                       # number of StoreCondReq hits (Count)
system.cpu.dcache.StoreCondReq.accesses::cpu.data            4                       # number of StoreCondReq accesses(hits+misses) (Count)
system.cpu.dcache.StoreCondReq.accesses::total            4                       # number of StoreCondReq accesses(hits+misses) (Count)
system.cpu.dcache.SwapReq.hits::cpu.data           19                       # number of SwapReq hits (Count)
system.cpu.dcache.SwapReq.hits::total              19                       # number of SwapReq hits (Count)
system.cpu.dcache.SwapReq.misses::cpu.data            1                       # number of SwapReq misses (Count)
system.cpu.dcache.SwapReq.misses::total             1                       # number of SwapReq misses (Count)
system.cpu.dcache.SwapReq.missLatency::cpu.data        51000                       # number of SwapReq miss ticks (Tick)
system.cpu.dcache.SwapReq.missLatency::total        51000                       # number of SwapReq miss ticks (Tick)
system.cpu.dcache.SwapReq.accesses::cpu.data           20                       # number of SwapReq accesses(hits+misses) (Count)
system.cpu.dcache.SwapReq.accesses::total           20                       # number of SwapReq accesses(hits+misses) (Count)
system.cpu.dcache.SwapReq.missRate::cpu.data     0.050000                       # miss rate for SwapReq accesses (Ratio)
system.cpu.dcache.SwapReq.missRate::total     0.050000                       # miss rate for SwapReq accesses (Ratio)
system.cpu.dcache.SwapReq.avgMissLatency::cpu.data        51000                       # average SwapReq miss latency ((Tick/Count))
system.cpu.dcache.SwapReq.avgMissLatency::total        51000                       # average SwapReq miss latency ((Tick/Count))
system.cpu.dcache.SwapReq.mshrMisses::cpu.data            1                       # number of SwapReq MSHR misses (Count)
system.cpu.dcache.SwapReq.mshrMisses::total            1                       # number of SwapReq MSHR misses (Count)
system.cpu.dcache.SwapReq.mshrMissLatency::cpu.data        50000                       # number of SwapReq MSHR miss ticks (Tick)
system.cpu.dcache.SwapReq.mshrMissLatency::total        50000                       # number of SwapReq MSHR miss ticks (Tick)
system.cpu.dcache.SwapReq.mshrMissRate::cpu.data     0.050000                       # mshr miss rate for SwapReq accesses (Ratio)
system.cpu.dcache.SwapReq.mshrMissRate::total     0.050000                       # mshr miss rate for SwapReq accesses (Ratio)
system.cpu.dcache.SwapReq.avgMshrMissLatency::cpu.data        50000                       # average SwapReq mshr miss latency ((Tick/Count))
system.cpu.dcache.SwapReq.avgMshrMissLatency::total        50000                       # average SwapReq mshr miss latency ((Tick/Count))
system.cpu.dcache.WriteLineReq.misses::cpu.data         2073                       # number of WriteLineReq misses (Count)
system.cpu.dcache.WriteLineReq.misses::total         2073                       # number of WriteLineReq misses (Count)
system.cpu.dcache.WriteLineReq.missLatency::cpu.data     37426931                       # number of WriteLineReq miss ticks (Tick)
system.cpu.dcache.WriteLineReq.missLatency::total     37426931                       # number of WriteLineReq miss ticks (Tick)
system.cpu.dcache.WriteLineReq.accesses::cpu.data         2073                       # number of WriteLineReq accesses(hits+misses) (Count)
system.cpu.dcache.WriteLineReq.accesses::total         2073                       # number of WriteLineReq accesses(hits+misses) (Count)
system.cpu.dcache.WriteLineReq.missRate::cpu.data            1                       # miss rate for WriteLineReq accesses (Ratio)
system.cpu.dcache.WriteLineReq.missRate::total            1                       # miss rate for WriteLineReq accesses (Ratio)
system.cpu.dcache.WriteLineReq.avgMissLatency::cpu.data 18054.477086                       # average WriteLineReq miss latency ((Tick/Count))
system.cpu.dcache.WriteLineReq.avgMissLatency::total 18054.477086                       # average WriteLineReq miss latency ((Tick/Count))
system.cpu.dcache.WriteLineReq.mshrMisses::cpu.data         2073                       # number of WriteLineReq MSHR misses (Count)
system.cpu.dcache.WriteLineReq.mshrMisses::total         2073                       # number of WriteLineReq MSHR misses (Count)
system.cpu.dcache.WriteLineReq.mshrMissLatency::cpu.data     35353931                       # number of WriteLineReq MSHR miss ticks (Tick)
system.cpu.dcache.WriteLineReq.mshrMissLatency::total     35353931                       # number of WriteLineReq MSHR miss ticks (Tick)
system.cpu.dcache.WriteLineReq.mshrMissRate::cpu.data            1                       # mshr miss rate for WriteLineReq accesses (Ratio)
system.cpu.dcache.WriteLineReq.mshrMissRate::total            1                       # mshr miss rate for WriteLineReq accesses (Ratio)
system.cpu.dcache.WriteLineReq.avgMshrMissLatency::cpu.data 17054.477086                       # average WriteLineReq mshr miss latency ((Tick/Count))
system.cpu.dcache.WriteLineReq.avgMshrMissLatency::total 17054.477086                       # average WriteLineReq mshr miss latency ((Tick/Count))
system.cpu.dcache.WriteReq.hits::cpu.data      2300378                       # number of WriteReq hits (Count)
system.cpu.dcache.WriteReq.hits::total        2300378                       # number of WriteReq hits (Count)
system.cpu.dcache.WriteReq.misses::cpu.data         3419                       # number of WriteReq misses (Count)
system.cpu.dcache.WriteReq.misses::total         3419                       # number of WriteReq misses (Count)
system.cpu.dcache.WriteReq.missLatency::cpu.data    200477963                       # number of WriteReq miss ticks (Tick)
system.cpu.dcache.WriteReq.missLatency::total    200477963                       # number of WriteReq miss ticks (Tick)
system.cpu.dcache.WriteReq.accesses::cpu.data      2303797                       # number of WriteReq accesses(hits+misses) (Count)
system.cpu.dcache.WriteReq.accesses::total      2303797                       # number of WriteReq accesses(hits+misses) (Count)
system.cpu.dcache.WriteReq.missRate::cpu.data     0.001484                       # miss rate for WriteReq accesses (Ratio)
system.cpu.dcache.WriteReq.missRate::total     0.001484                       # miss rate for WriteReq accesses (Ratio)
system.cpu.dcache.WriteReq.avgMissLatency::cpu.data 58636.432583                       # average WriteReq miss latency ((Tick/Count))
system.cpu.dcache.WriteReq.avgMissLatency::total 58636.432583                       # average WriteReq miss latency ((Tick/Count))
system.cpu.dcache.WriteReq.mshrHits::cpu.data          806                       # number of WriteReq MSHR hits (Count)
system.cpu.dcache.WriteReq.mshrHits::total          806                       # number of WriteReq MSHR hits (Count)
system.cpu.dcache.WriteReq.mshrMisses::cpu.data         2613                       # number of WriteReq MSHR misses (Count)
system.cpu.dcache.WriteReq.mshrMisses::total         2613                       # number of WriteReq MSHR misses (Count)
system.cpu.dcache.WriteReq.mshrMissLatency::cpu.data    164052994                       # number of WriteReq MSHR miss ticks (Tick)
system.cpu.dcache.WriteReq.mshrMissLatency::total    164052994                       # number of WriteReq MSHR miss ticks (Tick)
system.cpu.dcache.WriteReq.mshrMissRate::cpu.data     0.001134                       # mshr miss rate for WriteReq accesses (Ratio)
system.cpu.dcache.WriteReq.mshrMissRate::total     0.001134                       # mshr miss rate for WriteReq accesses (Ratio)
system.cpu.dcache.WriteReq.avgMshrMissLatency::cpu.data 62783.388442                       # average WriteReq mshr miss latency ((Tick/Count))
system.cpu.dcache.WriteReq.avgMshrMissLatency::total 62783.388442                       # average WriteReq mshr miss latency ((Tick/Count))
system.cpu.dcache.power_state.pwrStateResidencyTicks::UNDEFINED  21787843500                       # Cumulative time (in ticks) in various power states (Tick)
system.cpu.dcache.tags.tagsInUse           255.874827                       # Average ticks per tags in use ((Tick/Count))
system.cpu.dcache.tags.totalRefs             11522302                       # Total number of references to valid blocks. (Count)
system.cpu.dcache.tags.sampledRefs             608081                       # Sample count of references to valid blocks. (Count)
system.cpu.dcache.tags.avgRefs              18.948630                       # Average number of references to valid blocks. ((Count/Count))
system.cpu.dcache.tags.warmupTick              145000                       # The tick when the warmup percentage was hit. (Tick)
system.cpu.dcache.tags.occupancies::cpu.data   255.874827                       # Average occupied blocks per tick, per requestor ((Count/Tick))
system.cpu.dcache.tags.avgOccs::cpu.data     0.999511                       # Average percentage of cache occupancy ((Ratio/Tick))
system.cpu.dcache.tags.avgOccs::total        0.999511                       # Average percentage of cache occupancy ((Ratio/Tick))
system.cpu.dcache.tags.occupanciesTaskId::1024          256                       # Occupied blocks per task id (Count)
system.cpu.dcache.tags.ageTaskId_1024::0           53                       # Occupied blocks per task id, per block age (Count)
system.cpu.dcache.tags.ageTaskId_1024::1          203                       # Occupied blocks per task id, per block age (Count)
system.cpu.dcache.tags.ratioOccsTaskId::1024            1                       # Ratio of occupied blocks and all blocks, per task id (Ratio)
system.cpu.dcache.tags.tagAccesses           23719827                       # Number of tag accesses (Count)
system.cpu.dcache.tags.dataAccesses          23719827                       # Number of data accesses (Count)
system.cpu.dcache.tags.power_state.pwrStateResidencyTicks::UNDEFINED  21787843500                       # Cumulative time (in ticks) in various power states (Tick)
system.cpu.decode.idleCycles                  2832794                       # Number of cycles decode is idle (Cycle)
system.cpu.decode.blockedCycles              34009456                       # Number of cycles decode is blocked (Cycle)
system.cpu.decode.runCycles                   4673535                       # Number of cycles decode is running (Cycle)
system.cpu.decode.unblockCycles               1931128                       # Number of cycles decode is unblocking (Cycle)
system.cpu.decode.squashCycles                  74895                       # Number of cycles decode is squashing (Cycle)
system.cpu.decode.branchResolved              2597741                       # Number of times decode resolved a branch (Count)
system.cpu.decode.branchMispred                   418                       # Number of times decode detected a branch misprediction (Count)
system.cpu.decode.decodedInsts               42545713                       # Number of instructions handled by decode (Count)
system.cpu.decode.squashedInsts                  1594                       # Number of squashed instructions handled by decode (Count)
system.cpu.fetch.icacheStallCycles            4954309                       # Number of cycles fetch is stalled on an Icache miss (Cycle)
system.cpu.fetch.insts                       43080918                       # Number of instructions fetch has processed (Count)
system.cpu.fetch.branches                     3726761                       # Number of branches that fetch encountered (Count)
system.cpu.fetch.predictedBranches            2858591                       # Number of branches that fetch has predicted taken (Count)
system.cpu.fetch.cycles                      38492070                       # Number of cycles fetch has run and was not squashing or blocked (Cycle)
system.cpu.fetch.squashCycles                  150612                       # Number of cycles fetch has spent squashing (Cycle)
system.cpu.fetch.miscStallCycles                   65                       # Number of cycles fetch has spent waiting on interrupts, or bad addresses, or out of MSHRs (Cycle)
system.cpu.fetch.icacheWaitRetryStallCycles           58                       # Number of stall cycles due to full MSHR (Cycle)
system.cpu.fetch.cacheLines                   4905558                       # Number of cache lines fetched (Count)
system.cpu.fetch.icacheSquashes                 31245                       # Number of outstanding Icache misses that were squashed (Count)
system.cpu.fetch.nisnDist::samples           43521808                       # Number of instructions fetched each cycle (Total) (Count)
system.cpu.fetch.nisnDist::mean              1.019277                       # Number of instructions fetched each cycle (Total) (Count)
system.cpu.fetch.nisnDist::stdev             2.424161                       # Number of instructions fetched each cycle (Total) (Count)
system.cpu.fetch.nisnDist::underflows               0      0.00%      0.00% # Number of instructions fetched each cycle (Total) (Count)
system.cpu.fetch.nisnDist::0                 35658190     81.93%     81.93% # Number of instructions fetched each cycle (Total) (Count)
system.cpu.fetch.nisnDist::1                   644213      1.48%     83.41% # Number of instructions fetched each cycle (Total) (Count)
system.cpu.fetch.nisnDist::2                   737023      1.69%     85.11% # Number of instructions fetched each cycle (Total) (Count)
system.cpu.fetch.nisnDist::3                   554369      1.27%     86.38% # Number of instructions fetched each cycle (Total) (Count)
system.cpu.fetch.nisnDist::4                  1032444      2.37%     88.75% # Number of instructions fetched each cycle (Total) (Count)
system.cpu.fetch.nisnDist::5                   230339      0.53%     89.28% # Number of instructions fetched each cycle (Total) (Count)
system.cpu.fetch.nisnDist::6                   949447      2.18%     91.46% # Number of instructions fetched each cycle (Total) (Count)
system.cpu.fetch.nisnDist::7                   125009      0.29%     91.75% # Number of instructions fetched each cycle (Total) (Count)
system.cpu.fetch.nisnDist::8                  3590774      8.25%    100.00% # Number of instructions fetched each cycle (Total) (Count)
system.cpu.fetch.nisnDist::overflows                0      0.00%    100.00% # Number of instructions fetched each cycle (Total) (Count)
system.cpu.fetch.nisnDist::min_value                0                       # Number of instructions fetched each cycle (Total) (Count)
system.cpu.fetch.nisnDist::max_value                8                       # Number of instructions fetched each cycle (Total) (Count)
system.cpu.fetch.nisnDist::total             43521808                       # Number of instructions fetched each cycle (Total) (Count)
system.cpu.fetch.branchRate                  0.085524                       # Number of branch fetches per cycle (Ratio)
system.cpu.fetch.rate                        0.988646                       # Number of inst fetches per cycle ((Count/Cycle))
system.cpu.icache.demandHits::cpu.inst        4904286                       # number of demand (read+write) hits (Count)
system.cpu.icache.demandHits::total           4904286                       # number of demand (read+write) hits (Count)
system.cpu.icache.overallHits::cpu.inst       4904286                       # number of overall hits (Count)
system.cpu.icache.overallHits::total          4904286                       # number of overall hits (Count)
system.cpu.icache.demandMisses::cpu.inst         1271                       # number of demand (read+write) misses (Count)
system.cpu.icache.demandMisses::total            1271                       # number of demand (read+write) misses (Count)
system.cpu.icache.overallMisses::cpu.inst         1271                       # number of overall misses (Count)
system.cpu.icache.overallMisses::total           1271                       # number of overall misses (Count)
system.cpu.icache.demandMissLatency::cpu.inst     76072998                       # number of demand (read+write) miss ticks (Tick)
system.cpu.icache.demandMissLatency::total     76072998                       # number of demand (read+write) miss ticks (Tick)
system.cpu.icache.overallMissLatency::cpu.inst     76072998                       # number of overall miss ticks (Tick)
system.cpu.icache.overallMissLatency::total     76072998                       # number of overall miss ticks (Tick)
system.cpu.icache.demandAccesses::cpu.inst      4905557                       # number of demand (read+write) accesses (Count)
system.cpu.icache.demandAccesses::total       4905557                       # number of demand (read+write) accesses (Count)
system.cpu.icache.overallAccesses::cpu.inst      4905557                       # number of overall (read+write) accesses (Count)
system.cpu.icache.overallAccesses::total      4905557                       # number of overall (read+write) accesses (Count)
system.cpu.icache.demandMissRate::cpu.inst     0.000259                       # miss rate for demand accesses (Ratio)
system.cpu.icache.demandMissRate::total      0.000259                       # miss rate for demand accesses (Ratio)
system.cpu.icache.overallMissRate::cpu.inst     0.000259                       # miss rate for overall accesses (Ratio)
system.cpu.icache.overallMissRate::total     0.000259                       # miss rate for overall accesses (Ratio)
system.cpu.icache.demandAvgMissLatency::cpu.inst 59852.870181                       # average overall miss latency ((Cycle/Count))
system.cpu.icache.demandAvgMissLatency::total 59852.870181                       # average overall miss latency ((Cycle/Count))
system.cpu.icache.overallAvgMissLatency::cpu.inst 59852.870181                       # average overall miss latency ((Cycle/Count))
system.cpu.icache.overallAvgMissLatency::total 59852.870181                       # average overall miss latency ((Cycle/Count))
system.cpu.icache.blockedCycles::no_mshrs          626                       # number of cycles access was blocked (Cycle)
system.cpu.icache.blockedCycles::no_targets            0                       # number of cycles access was blocked (Cycle)
system.cpu.icache.blockedCauses::no_mshrs           10                       # number of times access was blocked (Count)
system.cpu.icache.blockedCauses::no_targets            0                       # number of times access was blocked (Count)
system.cpu.icache.avgBlocked::no_mshrs      62.600000                       # average number of cycles each access was blocked ((Cycle/Count))
system.cpu.icache.avgBlocked::no_targets          nan                       # average number of cycles each access was blocked ((Cycle/Count))
system.cpu.icache.writebacks::writebacks          521                       # number of writebacks (Count)
system.cpu.icache.writebacks::total               521                       # number of writebacks (Count)
system.cpu.icache.demandMshrHits::cpu.inst          271                       # number of demand (read+write) MSHR hits (Count)
system.cpu.icache.demandMshrHits::total           271                       # number of demand (read+write) MSHR hits (Count)
system.cpu.icache.overallMshrHits::cpu.inst          271                       # number of overall MSHR hits (Count)
system.cpu.icache.overallMshrHits::total          271                       # number of overall MSHR hits (Count)
system.cpu.icache.demandMshrMisses::cpu.inst         1000                       # number of demand (read+write) MSHR misses (Count)
system.cpu.icache.demandMshrMisses::total         1000                       # number of demand (read+write) MSHR misses (Count)
system.cpu.icache.overallMshrMisses::cpu.inst         1000                       # number of overall MSHR misses (Count)
system.cpu.icache.overallMshrMisses::total         1000                       # number of overall MSHR misses (Count)
system.cpu.icache.demandMshrMissLatency::cpu.inst     60067999                       # number of demand (read+write) MSHR miss ticks (Tick)
system.cpu.icache.demandMshrMissLatency::total     60067999                       # number of demand (read+write) MSHR miss ticks (Tick)
system.cpu.icache.overallMshrMissLatency::cpu.inst     60067999                       # number of overall MSHR miss ticks (Tick)
system.cpu.icache.overallMshrMissLatency::total     60067999                       # number of overall MSHR miss ticks (Tick)
system.cpu.icache.demandMshrMissRate::cpu.inst     0.000204                       # mshr miss ratio for demand accesses (Ratio)
system.cpu.icache.demandMshrMissRate::total     0.000204                       # mshr miss ratio for demand accesses (Ratio)
system.cpu.icache.overallMshrMissRate::cpu.inst     0.000204                       # mshr miss ratio for overall accesses (Ratio)
system.cpu.icache.overallMshrMissRate::total     0.000204                       # mshr miss ratio for overall accesses (Ratio)
system.cpu.icache.demandAvgMshrMissLatency::cpu.inst 60067.999000                       # average overall mshr miss latency ((Cycle/Count))
system.cpu.icache.demandAvgMshrMissLatency::total 60067.999000                       # average overall mshr miss latency ((Cycle/Count))
system.cpu.icache.overallAvgMshrMissLatency::cpu.inst 60067.999000                       # average overall mshr miss latency ((Cycle/Count))
system.cpu.icache.overallAvgMshrMissLatency::total 60067.999000                       # average overall mshr miss latency ((Cycle/Count))
system.cpu.icache.replacements                    521                       # number of replacements (Count)
system.cpu.icache.ReadReq.hits::cpu.inst      4904286                       # number of ReadReq hits (Count)
system.cpu.icache.ReadReq.hits::total         4904286                       # number of ReadReq hits (Count)
system.cpu.icache.ReadReq.misses::cpu.inst         1271                       # number of ReadReq misses (Count)
system.cpu.icache.ReadReq.misses::total          1271                       # number of ReadReq misses (Count)
system.cpu.icache.ReadReq.missLatency::cpu.inst     76072998                       # number of ReadReq miss ticks (Tick)
system.cpu.icache.ReadReq.missLatency::total     76072998                       # number of ReadReq miss ticks (Tick)
system.cpu.icache.ReadReq.accesses::cpu.inst      4905557                       # number of ReadReq accesses(hits+misses) (Count)
system.cpu.icache.ReadReq.accesses::total      4905557                       # number of ReadReq accesses(hits+misses) (Count)
system.cpu.icache.ReadReq.missRate::cpu.inst     0.000259                       # miss rate for ReadReq accesses (Ratio)
system.cpu.icache.ReadReq.missRate::total     0.000259                       # miss rate for ReadReq accesses (Ratio)
system.cpu.icache.ReadReq.avgMissLatency::cpu.inst 59852.870181                       # average ReadReq miss latency ((Tick/Count))
system.cpu.icache.ReadReq.avgMissLatency::total 59852.870181                       # average ReadReq miss latency ((Tick/Count))
system.cpu.icache.ReadReq.mshrHits::cpu.inst          271                       # number of ReadReq MSHR hits (Count)
system.cpu.icache.ReadReq.mshrHits::total          271                       # number of ReadReq MSHR hits (Count)
system.cpu.icache.ReadReq.mshrMisses::cpu.inst         1000                       # number of ReadReq MSHR misses (Count)
system.cpu.icache.ReadReq.mshrMisses::total         1000                       # number of ReadReq MSHR misses (Count)
system.cpu.icache.ReadReq.mshrMissLatency::cpu.inst     60067999                       # number of ReadReq MSHR miss ticks (Tick)
system.cpu.icache.ReadReq.mshrMissLatency::total     60067999                       # number of ReadReq MSHR miss ticks (Tick)
system.cpu.icache.ReadReq.mshrMissRate::cpu.inst     0.000204                       # mshr miss rate for ReadReq accesses (Ratio)
system.cpu.icache.ReadReq.mshrMissRate::total     0.000204                       # mshr miss rate for ReadReq accesses (Ratio)
system.cpu.icache.ReadReq.avgMshrMissLatency::cpu.inst 60067.999000                       # average ReadReq mshr miss latency ((Tick/Count))
system.cpu.icache.ReadReq.avgMshrMissLatency::total 60067.999000                       # average ReadReq mshr miss latency ((Tick/Count))
system.cpu.icache.power_state.pwrStateResidencyTicks::UNDEFINED  21787843500                       # Cumulative time (in ticks) in various power states (Tick)
system.cpu.icache.tags.tagsInUse           402.271279                       # Average ticks per tags in use ((Tick/Count))
system.cpu.icache.tags.totalRefs              4905285                       # Total number of references to valid blocks. (Count)
system.cpu.icache.tags.sampledRefs                999                       # Sample count of references to valid blocks. (Count)
system.cpu.icache.tags.avgRefs            4910.195195                       # Average number of references to valid blocks. ((Count/Count))
system.cpu.icache.tags.warmupTick               77000                       # The tick when the warmup percentage was hit. (Tick)
system.cpu.icache.tags.occupancies::cpu.inst   402.271279                       # Average occupied blocks per tick, per requestor ((Count/Tick))
system.cpu.icache.tags.avgOccs::cpu.inst     0.785686                       # Average percentage of cache occupancy ((Ratio/Tick))
system.cpu.icache.tags.avgOccs::total        0.785686                       # Average percentage of cache occupancy ((Ratio/Tick))
system.cpu.icache.tags.occupanciesTaskId::1024          478                       # Occupied blocks per task id (Count)
system.cpu.icache.tags.ageTaskId_1024::0          146                       # Occupied blocks per task id, per block age (Count)
system.cpu.icache.tags.ageTaskId_1024::1          109                       # Occupied blocks per task id, per block age (Count)
system.cpu.icache.tags.ageTaskId_1024::2            2                       # Occupied blocks per task id, per block age (Count)
system.cpu.icache.tags.ageTaskId_1024::4          221                       # Occupied blocks per task id, per block age (Count)
system.cpu.icache.tags.ratioOccsTaskId::1024     0.933594                       # Ratio of occupied blocks and all blocks, per task id (Ratio)
system.cpu.icache.tags.tagAccesses            9812113                       # Number of tag accesses (Count)
system.cpu.icache.tags.dataAccesses           9812113                       # Number of data accesses (Count)
system.cpu.icache.tags.power_state.pwrStateResidencyTicks::UNDEFINED  21787843500                       # Cumulative time (in ticks) in various power states (Tick)
system.cpu.iew.idleCycles                           0                       # Number of cycles IEW is idle (Cycle)
system.cpu.iew.squashCycles                     74895                       # Number of cycles IEW is squashing (Cycle)
system.cpu.iew.blockCycles                    1234365                       # Number of cycles IEW is blocking (Cycle)
system.cpu.iew.unblockCycles                  1147513                       # Number of cycles IEW is unblocking (Cycle)
system.cpu.iew.dispatchedInsts               41793212                       # Number of instructions dispatched to IQ (Count)
system.cpu.iew.dispSquashedInsts                38978                       # Number of squashed instructions skipped by dispatch (Count)
system.cpu.iew.dispLoadInsts                 12927810                       # Number of dispatched load instructions (Count)
system.cpu.iew.dispStoreInsts                 2475854                       # Number of dispatched store instructions (Count)
system.cpu.iew.dispNonSpecInsts                   254                       # Number of dispatched non-speculative instructions (Count)
system.cpu.iew.iqFullEvents                     44570                       # Number of times the IQ has become full, causing a stall (Count)
system.cpu.iew.lsqFullEvents                  1101604                       # Number of times the LSQ has become full, causing a stall (Count)
system.cpu.iew.memOrderViolationEvents            440                       # Number of memory order violations (Count)
system.cpu.iew.predictedTakenIncorrect          56164                       # Number of branches that were predicted taken incorrectly (Count)
system.cpu.iew.predictedNotTakenIncorrect        19220                       # Number of branches that were predicted not taken incorrectly (Count)
system.cpu.iew.branchMispredicts                75384                       # Number of branch mispredicts detected at execute (Count)
system.cpu.iew.instsToCommit                 40614017                       # Cumulative count of insts sent to commit (Count)
system.cpu.iew.writebackCount                40576906                       # Cumulative count of insts written-back (Count)
system.cpu.iew.producerInst                  31410088                       # Number of instructions producing a value (Count)
[...]
system.mem_ctrls.dram.bwRead::cpu.inst        2934480                       # Total read bandwidth from this memory ((Byte/Second))
system.mem_ctrls.dram.bwRead::cpu.data     1780078143                       # Total read bandwidth from this memory ((Byte/Second))
system.mem_ctrls.dram.bwRead::total        1783012624                       # Total read bandwidth from this memory ((Byte/Second))
system.mem_ctrls.dram.bwInstRead::cpu.inst      2934480                       # Instruction read bandwidth from this memory ((Byte/Second))
system.mem_ctrls.dram.bwInstRead::total       2934480                       # Instruction read bandwidth from this memory ((Byte/Second))
system.mem_ctrls.dram.bwWrite::writebacks     20594236                       # Write bandwidth from this memory ((Byte/Second))
system.mem_ctrls.dram.bwWrite::total         20594236                       # Write bandwidth from this memory ((Byte/Second))
system.mem_ctrls.dram.bwTotal::writebacks     20594236                       # Total bandwidth to/from this memory ((Byte/Second))
system.mem_ctrls.dram.bwTotal::cpu.inst       2934480                       # Total bandwidth to/from this memory ((Byte/Second))
system.mem_ctrls.dram.bwTotal::cpu.data    1780078143                       # Total bandwidth to/from this memory ((Byte/Second))
system.mem_ctrls.dram.bwTotal::total       1803606860                       # Total bandwidth to/from this memory ((Byte/Second))
system.mem_ctrls.dram.readBursts               595981                       # Number of DRAM read bursts (Count)
system.mem_ctrls.dram.writeBursts                7198                       # Number of DRAM write bursts (Count)
system.mem_ctrls.dram.perBankRdBursts::0          797                       # Per bank write bursts (Count)
system.mem_ctrls.dram.perBankRdBursts::1          750                       # Per bank write bursts (Count)
system.mem_ctrls.dram.perBankRdBursts::2          763                       # Per bank write bursts (Count)
system.mem_ctrls.dram.perBankRdBursts::3          710                       # Per bank write bursts (Count)
system.mem_ctrls.dram.perBankRdBursts::4        42570                       # Per bank write bursts (Count)
system.mem_ctrls.dram.perBankRdBursts::5       145287                       # Per bank write bursts (Count)
system.mem_ctrls.dram.perBankRdBursts::6       145166                       # Per bank write bursts (Count)
system.mem_ctrls.dram.perBankRdBursts::7       145089                       # Per bank write bursts (Count)
system.mem_ctrls.dram.perBankRdBursts::8       104264                       # Per bank write bursts (Count)
system.mem_ctrls.dram.perBankRdBursts::9         2565                       # Per bank write bursts (Count)
system.mem_ctrls.dram.perBankRdBursts::10         2560                       # Per bank write bursts (Count)
system.mem_ctrls.dram.perBankRdBursts::11         2548                       # Per bank write bursts (Count)
system.mem_ctrls.dram.perBankRdBursts::12         1587                       # Per bank write bursts (Count)
system.mem_ctrls.dram.perBankRdBursts::13          453                       # Per bank write bursts (Count)
system.mem_ctrls.dram.perBankRdBursts::14          413                       # Per bank write bursts (Count)
system.mem_ctrls.dram.perBankRdBursts::15          459                       # Per bank write bursts (Count)
system.mem_ctrls.dram.perBankWrBursts::0          343                       # Per bank write bursts (Count)
system.mem_ctrls.dram.perBankWrBursts::1          371                       # Per bank write bursts (Count)
system.mem_ctrls.dram.perBankWrBursts::2          448                       # Per bank write bursts (Count)
system.mem_ctrls.dram.perBankWrBursts::3          333                       # Per bank write bursts (Count)
system.mem_ctrls.dram.perBankWrBursts::4          521                       # Per bank write bursts (Count)
system.mem_ctrls.dram.perBankWrBursts::5          563                       # Per bank write bursts (Count)
system.mem_ctrls.dram.perBankWrBursts::6          581                       # Per bank write bursts (Count)
system.mem_ctrls.dram.perBankWrBursts::7          521                       # Per bank write bursts (Count)
system.mem_ctrls.dram.perBankWrBursts::8          467                       # Per bank write bursts (Count)
system.mem_ctrls.dram.perBankWrBursts::9          528                       # Per bank write bursts (Count)
system.mem_ctrls.dram.perBankWrBursts::10          512                       # Per bank write bursts (Count)
system.mem_ctrls.dram.perBankWrBursts::11          531                       # Per bank write bursts (Count)
system.mem_ctrls.dram.perBankWrBursts::12          449                       # Per bank write bursts (Count)
system.mem_ctrls.dram.perBankWrBursts::13          386                       # Per bank write bursts (Count)
system.mem_ctrls.dram.perBankWrBursts::14          356                       # Per bank write bursts (Count)
system.mem_ctrls.dram.perBankWrBursts::15          288                       # Per bank write bursts (Count)
system.mem_ctrls.dram.totQLat              2234286750                       # Total ticks spent queuing (Tick)
system.mem_ctrls.dram.totBusLat            2979905000                       # Total ticks spent in databus transfers (Tick)
system.mem_ctrls.dram.totMemAccLat        13408930500                       # Total ticks spent from burst creation until serviced by the DRAM (Tick)
system.mem_ctrls.dram.avgQLat                 3748.92                       # Average queueing delay per DRAM burst ((Tick/Count))
system.mem_ctrls.dram.avgBusLat               5000.00                       # Average bus latency per DRAM burst ((Tick/Count))
system.mem_ctrls.dram.avgMemAccLat           22498.92                       # Average memory access latency per DRAM burst ((Tick/Count))
system.mem_ctrls.dram.readRowHits              550762                       # Number of row buffer hits during reads (Count)
system.mem_ctrls.dram.writeRowHits               6351                       # Number of row buffer hits during writes (Count)
system.mem_ctrls.dram.readRowHitRate            92.41                       # Row buffer hit rate for reads (Ratio)
system.mem_ctrls.dram.writeRowHitRate           88.23                       # Row buffer hit rate for writes (Ratio)
system.mem_ctrls.dram.bytesPerActivate::samples        46056                       # Bytes accessed per row activation (Byte)
system.mem_ctrls.dram.bytesPerActivate::mean   838.139309                       # Bytes accessed per row activation (Byte)
system.mem_ctrls.dram.bytesPerActivate::gmean   693.274313                       # Bytes accessed per row activation (Byte)
system.mem_ctrls.dram.bytesPerActivate::stdev   331.704521                       # Bytes accessed per row activation (Byte)
system.mem_ctrls.dram.bytesPerActivate::0-127         2625      5.70%      5.70% # Bytes accessed per row activation (Byte)
system.mem_ctrls.dram.bytesPerActivate::128-255         2341      5.08%     10.78% # Bytes accessed per row activation (Byte)
system.mem_ctrls.dram.bytesPerActivate::256-383         3036      6.59%     17.37% # Bytes accessed per row activation (Byte)
system.mem_ctrls.dram.bytesPerActivate::384-511          941      2.04%     19.42% # Bytes accessed per row activation (Byte)
system.mem_ctrls.dram.bytesPerActivate::512-639          917      1.99%     21.41% # Bytes accessed per row activation (Byte)
system.mem_ctrls.dram.bytesPerActivate::640-767          708      1.54%     22.95% # Bytes accessed per row activation (Byte)
system.mem_ctrls.dram.bytesPerActivate::768-895         1453      3.15%     26.10% # Bytes accessed per row activation (Byte)
system.mem_ctrls.dram.bytesPerActivate::896-1023         1072      2.33%     28.43% # Bytes accessed per row activation (Byte)
system.mem_ctrls.dram.bytesPerActivate::1024-1151        32963     71.57%    100.00% # Bytes accessed per row activation (Byte)
system.mem_ctrls.dram.bytesPerActivate::total        46056                       # Bytes accessed per row activation (Byte)
system.mem_ctrls.dram.bytesRead              38142784                       # Total bytes read (Byte)
system.mem_ctrls.dram.bytesWritten             460672                       # Total bytes written (Byte)
system.mem_ctrls.dram.avgRdBW             1750.645216                       # Average DRAM read bandwidth in MiBytes/s ((Byte/Second))
system.mem_ctrls.dram.avgWrBW               21.143534                       # Average DRAM write bandwidth in MiBytes/s ((Byte/Second))
system.mem_ctrls.dram.peakBW                 12800.00                       # Theoretical peak bandwidth in MiByte/s ((Byte/Second))
system.mem_ctrls.dram.busUtil                   13.84                       # Data bus utilization in percentage (Ratio)
system.mem_ctrls.dram.busUtilRead               13.68                       # Data bus utilization in percentage for reads (Ratio)
system.mem_ctrls.dram.busUtilWrite               0.17                       # Data bus utilization in percentage for writes (Ratio)
system.mem_ctrls.dram.pageHitRate               92.36                       # Row buffer hit rate, read and write combined (Ratio)
system.mem_ctrls.dram.power_state.pwrStateResidencyTicks::UNDEFINED  21787843500                       # Cumulative time (in ticks) in various power states (Tick)
system.mem_ctrls.dram.rank0.actEnergy       250999560                       # Energy for activate commands per rank (pJ) (Joule)
system.mem_ctrls.dram.rank0.preEnergy       133398045                       # Energy for precharge commands per rank (pJ) (Joule)
system.mem_ctrls.dram.rank0.readEnergy     3435282480                       # Energy for read commands per rank (pJ) (Joule)
system.mem_ctrls.dram.rank0.writeEnergy      19214820                       # Energy for write commands per rank (pJ) (Joule)
system.mem_ctrls.dram.rank0.refreshEnergy 1719762720.000000                       # Energy for refresh commands per rank (pJ) (Joule)
system.mem_ctrls.dram.rank0.actBackEnergy   9410521590                       # Energy for active background per rank (pJ) (Joule)
system.mem_ctrls.dram.rank0.preBackEnergy    441882240                       # Energy for precharge background per rank (pJ) (Joule)
system.mem_ctrls.dram.rank0.actPowerDownEnergy            0                       # Energy for active power-down per rank (pJ) (Joule)
system.mem_ctrls.dram.rank0.prePowerDownEnergy            0                       # Energy for precharge power-down per rank (pJ) (Joule)
system.mem_ctrls.dram.rank0.selfRefreshEnergy            0                       # Energy for self refresh per rank (pJ) (Joule)
system.mem_ctrls.dram.rank0.totalEnergy   15411061455                       # Total energy per rank (pJ) (Joule)
system.mem_ctrls.dram.rank0.averagePower   707.323855                       # Core power per rank (mW) (Watt)
system.mem_ctrls.dram.rank0.totalIdleTime            0                       # Total Idle time Per DRAM Rank (Tick)
system.mem_ctrls.dram.rank0.pwrStateTime::IDLE   1061114750                       # Time in different power states (Tick)
system.mem_ctrls.dram.rank0.pwrStateTime::REF    727480000                       # Time in different power states (Tick)
system.mem_ctrls.dram.rank0.pwrStateTime::SREF            0                       # Time in different power states (Tick)
system.mem_ctrls.dram.rank0.pwrStateTime::PRE_PDN            0                       # Time in different power states (Tick)
system.mem_ctrls.dram.rank0.pwrStateTime::ACT  19999248750                       # Time in different power states (Tick)
system.mem_ctrls.dram.rank0.pwrStateTime::ACT_PDN            0                       # Time in different power states (Tick)
system.mem_ctrls.dram.rank1.actEnergy        77911680                       # Energy for activate commands per rank (pJ) (Joule)
system.mem_ctrls.dram.rank1.preEnergy        41384475                       # Energy for precharge commands per rank (pJ) (Joule)
system.mem_ctrls.dram.rank1.readEnergy      820021860                       # Energy for read commands per rank (pJ) (Joule)
system.mem_ctrls.dram.rank1.writeEnergy      18358740                       # Energy for write commands per rank (pJ) (Joule)
system.mem_ctrls.dram.rank1.refreshEnergy 1719762720.000000                       # Energy for refresh commands per rank (pJ) (Joule)
system.mem_ctrls.dram.rank1.actBackEnergy   8761110330                       # Energy for active background per rank (pJ) (Joule)
system.mem_ctrls.dram.rank1.preBackEnergy    988754880                       # Energy for precharge background per rank (pJ) (Joule)
system.mem_ctrls.dram.rank1.actPowerDownEnergy            0                       # Energy for active power-down per rank (pJ) (Joule)
system.mem_ctrls.dram.rank1.prePowerDownEnergy            0                       # Energy for precharge power-down per rank (pJ) (Joule)
system.mem_ctrls.dram.rank1.selfRefreshEnergy            0                       # Energy for self refresh per rank (pJ) (Joule)
system.mem_ctrls.dram.rank1.totalEnergy   12427304685                       # Total energy per rank (pJ) (Joule)
system.mem_ctrls.dram.rank1.averagePower   570.377912                       # Core power per rank (mW) (Watt)
system.mem_ctrls.dram.rank1.totalIdleTime            0                       # Total Idle time Per DRAM Rank (Tick)
system.mem_ctrls.dram.rank1.pwrStateTime::IDLE   2486410250                       # Time in different power states (Tick)
system.mem_ctrls.dram.rank1.pwrStateTime::REF    727480000                       # Time in different power states (Tick)
system.mem_ctrls.dram.rank1.pwrStateTime::SREF            0                       # Time in different power states (Tick)
system.mem_ctrls.dram.rank1.pwrStateTime::PRE_PDN            0                       # Time in different power states (Tick)
system.mem_ctrls.dram.rank1.pwrStateTime::ACT  18573953250                       # Time in different power states (Tick)
system.mem_ctrls.dram.rank1.pwrStateTime::ACT_PDN            0                       # Time in different power states (Tick)
system.mem_ctrls.power_state.pwrStateResidencyTicks::UNDEFINED  21787843500                       # Cumulative time (in ticks) in various power states (Tick)
system.membus.transDist::ReadResp              604393                       # Transaction distribution (Count)
system.membus.transDist::WritebackDirty          7011                       # Transaction distribution (Count)
system.membus.transDist::WritebackClean           521                       # Transaction distribution (Count)
system.membus.transDist::CleanEvict            600814                       # Transaction distribution (Count)
system.membus.transDist::ReadExReq               2607                       # Transaction distribution (Count)
system.membus.transDist::ReadExResp              2607                       # Transaction distribution (Count)
system.membus.transDist::ReadCleanReq            1000                       # Transaction distribution (Count)
system.membus.transDist::ReadSharedReq         603394                       # Transaction distribution (Count)
system.membus.transDist::InvalidateReq           2080                       # Transaction distribution (Count)
system.membus.pktCount_system.cpu.icache.mem_side_port::system.mem_ctrls.port         2520                       # Packet count per connected requestor and responder (Count)
system.membus.pktCount_system.cpu.dcache.mem_side_port::system.mem_ctrls.port      1821907                       # Packet count per connected requestor and responder (Count)
system.membus.pktCount::total                 1824427                       # Packet count per connected requestor and responder (Count)
system.membus.pktSize_system.cpu.icache.mem_side_port::system.mem_ctrls.port        97280                       # Cumulative packet size per connected requestor and responder (Byte)
system.membus.pktSize_system.cpu.dcache.mem_side_port::system.mem_ctrls.port     39232768                       # Cumulative packet size per connected requestor and responder (Byte)
system.membus.pktSize::total                 39330048                       # Cumulative packet size per connected requestor and responder (Byte)
system.membus.snoops                                0                       # Total snoops (Count)
system.membus.snoopTraffic                          0                       # Total snoop traffic (Byte)
system.membus.snoopFanout::samples             609081                       # Request fanout histogram (Count)
system.membus.snoopFanout::mean              0.000003                       # Request fanout histogram (Count)
system.membus.snoopFanout::stdev             0.001812                       # Request fanout histogram (Count)
system.membus.snoopFanout::underflows               0      0.00%      0.00% # Request fanout histogram (Count)
system.membus.snoopFanout::0                   609079    100.00%    100.00% # Request fanout histogram (Count)
system.membus.snoopFanout::1                        2      0.00%    100.00% # Request fanout histogram (Count)
system.membus.snoopFanout::2                        0      0.00%    100.00% # Request fanout histogram (Count)
system.membus.snoopFanout::overflows                0      0.00%    100.00% # Request fanout histogram (Count)
system.membus.snoopFanout::min_value                0                       # Request fanout histogram (Count)
system.membus.snoopFanout::max_value                1                       # Request fanout histogram (Count)
system.membus.snoopFanout::total               609081                       # Request fanout histogram (Count)
system.membus.power_state.pwrStateResidencyTicks::UNDEFINED  21787843500                       # Cumulative time (in ticks) in various power states (Tick)
system.membus.reqLayer0.occupancy          1473310000                       # Layer occupancy (ticks) (Tick)
system.membus.reqLayer0.utilization               0.1                       # Layer utilization (Ratio)
system.membus.respLayer1.occupancy            5283500                       # Layer occupancy (ticks) (Tick)
system.membus.respLayer1.utilization              0.0                       # Layer utilization (Ratio)
system.membus.respLayer2.occupancy         3182916500                       # Layer occupancy (ticks) (Tick)
system.membus.respLayer2.utilization              0.1                       # Layer utilization (Ratio)
system.membus.snoop_filter.totRequests        1217429                       # Total number of requests made to the snoop filter. (Count)
system.membus.snoop_filter.hitSingleRequests       608349                       # Number of requests hitting in the snoop filter with a single holder of the requested data. (Count)
system.membus.snoop_filter.hitMultiRequests            1                       # Number of requests hitting in the snoop filter with multiple (>1) holders of the requested data. (Count)
system.membus.snoop_filter.totSnoops                0                       # Total number of snoops made to the snoop filter. (Count)
system.membus.snoop_filter.hitSingleSnoops            0                       # Number of snoops hitting in the snoop filter with a single holder of the requested data. (Count)
system.membus.snoop_filter.hitMultiSnoops            0                       # Number of snoops hitting in the snoop filter with multiple (>1) holders of the requested data. (Count)
system.voltage_domain.voltage                       1                       # Voltage in Volts (Volt)
system.workload.inst.arm                            0                       # number of arm instructions executed (Count)
system.workload.inst.quiesce                        0                       # number of quiesce instructions executed (Count)

---------- End Simulation Statistics   ----------
