
---------- Begin Simulation Statistics ----------
simSeconds                                   0.024267                       # Number of seconds simulated (Second)
simTicks                                  24266631000                       # Number of ticks simulated (Tick)
finalTick                                 24266631000                       # Number of ticks from beginning of simulation (restored from checkpoints and never reset) (Tick)
simFreq                                  1000000000000                       # The number of ticks per simulated second ((Tick/Second))
hostSeconds                                     62.11                       # Real time elapsed on the host (Second)
hostTickRate                                390676433                       # The number of ticks simulated per host second (ticks/s) ((Tick/Second))
hostMemory                                     671952                       # Number of bytes of host memory used (Byte)
simInsts                                     37273609                       # Number of instructions simulated (Count)
simOps                                       38427141                       # Number of ops (including micro ops) simulated (Count)
hostInstRate                                   600080                       # Simulator instruction rate (inst/s) ((Count/Second))
hostOpRate                                     618651                       # Simulator op (including micro ops) rate (op/s) ((Count/Second))
system.clk_domain.clock                          1000                       # Clock period in ticks (Tick)
system.cpu.numCycles                         48533263                       # Number of cpu cycles simulated (Cycle)
system.cpu.numWorkItemsStarted                      0                       # Number of work items this cpu started (Count)
system.cpu.numWorkItemsCompleted                    0                       # Number of work items this cpu completed (Count)
system.cpu.instsAdded                        41853148                       # Number of instructions added to the IQ (excludes non-spec) (Count)
system.cpu.nonSpecInstsAdded                      270                       # Number of non-speculative instructions added to the IQ (Count)
system.cpu.instsIssued                       40972836                       # Number of instructions issued (Count)
system.cpu.squashedInstsIssued                   5559                       # Number of squashed instructions issued (Count)
system.cpu.squashedInstsExamined              3426276                       # Number of squashed instructions iterated over during squash; mainly for profiling (Count)
system.cpu.squashedOperandsExamined           2550739                       # Number of squashed operands that are examined and possibly removed from graph (Count)
system.cpu.squashedNonSpecRemoved                  57                       # Number of squashed non-spec instructions that were removed (Count)
system.cpu.numIssuedDist::samples            48479840                       # Number of insts issued each cycle (Count)
system.cpu.numIssuedDist::mean               0.845152                       # Number of insts issued each cycle (Count)
system.cpu.numIssuedDist::stdev              1.442159                       # Number of insts issued each cycle (Count)
system.cpu.numIssuedDist::underflows                0      0.00%      0.00% # Number of insts issued each cycle (Count)
system.cpu.numIssuedDist::0                  30965395     63.87%     63.87% # Number of insts issued each cycle (Count)
system.cpu.numIssuedDist::1                   6928118     14.29%     78.16% # Number of insts issued each cycle (Count)
system.cpu.numIssuedDist::2                   4154474      8.57%     86.73% # Number of insts issued each cycle (Count)
system.cpu.numIssuedDist::3                   2898885      5.98%     92.71% # Number of insts issued each cycle (Count)
system.cpu.numIssuedDist::4                   1773462      3.66%     96.37% # Number of insts issued each cycle (Count)
system.cpu.numIssuedDist::5                    950507      1.96%     98.33% # Number of insts issued each cycle (Count)
system.cpu.numIssuedDist::6                    548337      1.13%     99.46% # Number of insts issued each cycle (Count)
system.cpu.numIssuedDist::7                    182586      0.38%     99.84% # Number of insts issued each cycle (Count)
system.cpu.numIssuedDist::8                     78076      0.16%    100.00% # Number of insts issued each cycle (Count)
system.cpu.numIssuedDist::overflows                 0      0.00%    100.00% # Number of insts issued each cycle (Count)
system.cpu.numIssuedDist::min_value                 0                       # Number of insts issued each cycle (Count)
system.cpu.numIssuedDist::max_value                 8                       # Number of insts issued each cycle (Count)
system.cpu.numIssuedDist::total              48479840                       # Number of insts issued each cycle (Count)
system.cpu.statFuBusy::No_OpClass                   0      0.00%      0.00% # attempts to use FU when none available (Count)
system.cpu.statFuBusy::IntAlu                  112197     18.67%     18.67% # attempts to use FU when none available (Count)
system.cpu.statFuBusy::IntMult                   2478      0.41%     19.08% # attempts to use FU when none available (Count)
system.cpu.statFuBusy::IntDiv                       0      0.00%     19.08% # attempts to use FU when none available (Count)
system.cpu.statFuBusy::FloatAdd                     0      0.00%     19.08% # attempts to use FU when none available (Count)
system.cpu.statFuBusy::FloatCmp                     0      0.00%     19.08% # attempts to use FU when none available (Count)
system.cpu.statFuBusy::FloatCvt                     0      0.00%     19.08% # attempts to use FU when none available (Count)
system.cpu.statFuBusy::FloatMult                    0      0.00%     19.08% # attempts to use FU when none available (Count)
system.cpu.statFuBusy::FloatMultAcc                 0      0.00%     19.08% # attempts to use FU when none available (Count)
system.cpu.statFuBusy::FloatDiv                     0      0.00%     19.08% # attempts to use FU when none available (Count)
system.cpu.statFuBusy::FloatMisc                    0      0.00%     19.08% # attempts to use FU when none available (Count)
system.cpu.statFuBusy::FloatSqrt                    0      0.00%     19.08% # attempts to use FU when none available (Count)
system.cpu.statFuBusy::SimdAdd                      0      0.00%     19.08% # attempts to use FU when none available (Count)
system.cpu.statFuBusy::SimdAddAcc                   0      0.00%     19.08% # attempts to use FU when none available (Count)
system.cpu.statFuBusy::SimdAlu                   2223      0.37%     19.45% # attempts to use FU when none available (Count)
system.cpu.statFuBusy::SimdCmp                    252      0.04%     19.49% # attempts to use FU when none available (Count)
system.cpu.statFuBusy::SimdCvt                      0      0.00%     19.49% # attempts to use FU when none available (Count)
system.cpu.statFuBusy::SimdMisc                     0      0.00%     19.49% # attempts to use FU when none available (Count)
system.cpu.statFuBusy::SimdMult                     0      0.00%     19.49% # attempts to use FU when none available (Count)
system.cpu.statFuBusy::SimdMultAcc                  0      0.00%     19.49% # attempts to use FU when none available (Count)
system.cpu.statFuBusy::SimdShift                    0      0.00%     19.49% # attempts to use FU when none available (Count)
system.cpu.statFuBusy::SimdShiftAcc                 0      0.00%     19.49% # attempts to use FU when none available (Count)
system.cpu.statFuBusy::SimdDiv                      0      0.00%     19.49% # attempts to use FU when none available (Count)
system.cpu.statFuBusy::SimdSqrt                     0      0.00%     19.49% # attempts to use FU when none available (Count)
system.cpu.statFuBusy::SimdFloatAdd                 0      0.00%     19.49% # attempts to use FU when none available (Count)
system.cpu.statFuBusy::SimdFloatAlu                 0      0.00%     19.49% # attempts to use FU when none available (Count)
system.cpu.statFuBusy::SimdFloatCmp                 0      0.00%     19.49% # attempts to use FU when none available (Count)
system.cpu.statFuBusy::SimdFloatCvt                 0      0.00%     19.49% # attempts to use FU when none available (Count)
system.cpu.statFuBusy::SimdFloatDiv                 0      0.00%     19.49% # attempts to use FU when none available (Count)
system.cpu.statFuBusy::SimdFloatMisc                0      0.00%     19.49% # attempts to use FU when none available (Count)
system.cpu.statFuBusy::SimdFloatMult                0      0.00%     19.49% # attempts to use FU when none available (Count)
system.cpu.statFuBusy::SimdFloatMultAcc             0      0.00%     19.49% # attempts to use FU when none available (Count)
system.cpu.statFuBusy::SimdFloatSqrt                0      0.00%     19.49% # attempts to use FU when none available (Count)
system.cpu.statFuBusy::SimdReduceAdd                0      0.00%     19.49% # attempts to use FU when none available (Count)
system.cpu.statFuBusy::SimdReduceAlu                0      0.00%     19.49% # attempts to use FU when none available (Count)
system.cpu.statFuBusy::SimdReduceCmp                0      0.00%     19.49% # attempts to use FU when none available (Count)
system.cpu.statFuBusy::SimdFloatReduceAdd            0      0.00%     19.49% # attempts to use FU when none available (Count)
system.cpu.statFuBusy::SimdFloatReduceCmp            0      0.00%     19.49% # attempts to use FU when none available (Count)
system.cpu.statFuBusy::SimdAes                      0      0.00%     19.49% # attempts to use FU when none available (Count)
system.cpu.statFuBusy::SimdAesMix                   0      0.00%     19.49% # attempts to use FU when none available (Count)
system.cpu.statFuBusy::SimdSha1Hash                 0      0.00%     19.49% # attempts to use FU when none available (Count)
system.cpu.statFuBusy::SimdSha1Hash2                0      0.00%     19.49% # attempts to use FU when none available (Count)
system.cpu.statFuBusy::SimdSha256Hash               0      0.00%     19.49% # attempts to use FU when none available (Count)
system.cpu.statFuBusy::SimdSha256Hash2              0      0.00%     19.49% # attempts to use FU when none available (Count)
system.cpu.statFuBusy::SimdShaSigma2                0      0.00%     19.49% # attempts to use FU when none available (Count)
system.cpu.statFuBusy::SimdShaSigma3                0      0.00%     19.49% # attempts to use FU when none available (Count)
system.cpu.statFuBusy::SimdPredAlu                  0      0.00%     19.49% # attempts to use FU when none available (Count)
system.cpu.statFuBusy::MemRead                 436559     72.64%     92.13% # attempts to use FU when none available (Count)
system.cpu.statFuBusy::MemWrite                 47300      7.87%    100.00% # attempts to use FU when none available (Count)
system.cpu.statFuBusy::FloatMemRead                 0      0.00%    100.00% # attempts to use FU when none available (Count)
system.cpu.statFuBusy::FloatMemWrite                0      0.00%    100.00% # attempts to use FU when none available (Count)
system.cpu.statFuBusy::IprAccess                    0      0.00%    100.00% # attempts to use FU when none available (Count)
system.cpu.statFuBusy::InstPrefetch                 0      0.00%    100.00% # attempts to use FU when none available (Count)
system.cpu.statIssuedInstType_0::No_OpClass        13674      0.03%      0.03% # Number of instructions issued per FU type, per thread (Count)
system.cpu.statIssuedInstType_0::IntAlu      23686297     57.81%     57.84% # Number of instructions issued per FU type, per thread (Count)
system.cpu.statIssuedInstType_0::IntMult        43872      0.11%     57.95% # Number of instructions issued per FU type, per thread (Count)
system.cpu.statIssuedInstType_0::IntDiv         20673      0.05%     58.00% # Number of instructions issued per FU type, per thread (Count)
system.cpu.statIssuedInstType_0::FloatAdd      1160456      2.83%     60.83% # Number of instructions issued per FU type, per thread (Count)
system.cpu.statIssuedInstType_0::FloatCmp       569474      1.39%     62.22% # Number of instructions issued per FU type, per thread (Count)
system.cpu.statIssuedInstType_0::FloatCvt            0      0.00%     62.22% # Number of instructions issued per FU type, per thread (Count)
system.cpu.statIssuedInstType_0::FloatMult            0      0.00%     62.22% # Number of instructions issued per FU type, per thread (Count)
system.cpu.statIssuedInstType_0::FloatMultAcc            0      0.00%     62.22% # Number of instructions issued per FU type, per thread (Count)
system.cpu.statIssuedInstType_0::FloatDiv            0      0.00%     62.22% # Number of instructions issued per FU type, per thread (Count)
system.cpu.statIssuedInstType_0::FloatMisc        30255      0.07%     62.30% # Number of instructions issued per FU type, per thread (Count)
system.cpu.statIssuedInstType_0::FloatSqrt            0      0.00%     62.30% # Number of instructions issued per FU type, per thread (Count)
system.cpu.statIssuedInstType_0::SimdAdd        32343      0.08%     62.38% # Number of instructions issued per FU type, per thread (Count)
system.cpu.statIssuedInstType_0::SimdAddAcc            0      0.00%     62.38% # Number of instructions issued per FU type, per thread (Count)
system.cpu.statIssuedInstType_0::SimdAlu        59603      0.15%     62.52% # Number of instructions issued per FU type, per thread (Count)
system.cpu.statIssuedInstType_0::SimdCmp        54562      0.13%     62.65% # Number of instructions issued per FU type, per thread (Count)
system.cpu.statIssuedInstType_0::SimdCvt            0      0.00%     62.65% # Number of instructions issued per FU type, per thread (Count)
system.cpu.statIssuedInstType_0::SimdMisc        36541      0.09%     62.74% # Number of instructions issued per FU type, per thread (Count)
system.cpu.statIssuedInstType_0::SimdMult            0      0.00%     62.74% # Number of instructions issued per FU type, per thread (Count)
system.cpu.statIssuedInstType_0::SimdMultAcc            0      0.00%     62.74% # Number of instructions issued per FU type, per thread (Count)
system.cpu.statIssuedInstType_0::SimdShift            0      0.00%     62.74% # Number of instructions issued per FU type, per thread (Count)
system.cpu.statIssuedInstType_0::SimdShiftAcc            0      0.00%     62.74% # Number of instructions issued per FU type, per thread (Count)
system.cpu.statIssuedInstType_0::SimdDiv            0      0.00%     62.74% # Number of instructions issued per FU type, per thread (Count)
system.cpu.statIssuedInstType_0::SimdSqrt            0      0.00%     62.74% # Number of instructions issued per FU type, per thread (Count)
system.cpu.statIssuedInstType_0::SimdFloatAdd            0      0.00%     62.74% # Number of instructions issued per FU type, per thread (Count)
system.cpu.statIssuedInstType_0::SimdFloatAlu            0      0.00%     62.74% # Number of instructions issued per FU type, per thread (Count)
system.cpu.statIssuedInstType_0::SimdFloatCmp            0      0.00%     62.74% # Number of instructions issued per FU type, per thread (Count)
system.cpu.statIssuedInstType_0::SimdFloatCvt            0      0.00%     62.74% # Number of instructions issued per FU type, per thread (Count)
system.cpu.statIssuedInstType_0::SimdFloatDiv            0      0.00%     62.74% # Number of instructions issued per FU type, per thread (Count)
system.cpu.statIssuedInstType_0::SimdFloatMisc            0      0.00%     62.74% # Number of instructions issued per FU type, per thread (Count)
system.cpu.statIssuedInstType_0::SimdFloatMult            0      0.00%     62.74% # Number of instructions issued per FU type, per thread (Count)
system.cpu.statIssuedInstType_0::SimdFloatMultAcc            0      0.00%     62.74% # Number of instructions issued per FU type, per thread (Count)
system.cpu.statIssuedInstType_0::SimdFloatSqrt            0      0.00%     62.74% # Number of instructions issued per FU type, per thread (Count)
system.cpu.statIssuedInstType_0::SimdReduceAdd            0      0.00%     62.74% # Number of instructions issued per FU type, per thread (Count)
system.cpu.statIssuedInstType_0::SimdReduceAlu            0      0.00%     62.74% # Number of instructions issued per FU type, per thread (Count)
system.cpu.statIssuedInstType_0::SimdReduceCmp            0      0.00%     62.74% # Number of instructions issued per FU type, per thread (Count)
system.cpu.statIssuedInstType_0::SimdFloatReduceAdd            0      0.00%     62.74% # Number of instructions issued per FU type, per thread (Count)
system.cpu.statIssuedInstType_0::SimdFloatReduceCmp            0      0.00%     62.74% # Number of instructions issued per FU type, per thread (Count)
system.cpu.statIssuedInstType_0::SimdAes            0      0.00%     62.74% # Number of instructions issued per FU type, per thread (Count)
system.cpu.statIssuedInstType_0::SimdAesMix            0      0.00%     62.74% # Number of instructions issued per FU type, per thread (Count)
system.cpu.statIssuedInstType_0::SimdSha1Hash            0      0.00%     62.74% # Number of instructions issued per FU type, per thread (Count)
system.cpu.statIssuedInstType_0::SimdSha1Hash2            0      0.00%     62.74% # Number of instructions issued per FU type, per thread (Count)
system.cpu.statIssuedInstType_0::SimdSha256Hash            0      0.00%     62.74% # Number of instructions issued per FU type, per thread (Count)
system.cpu.statIssuedInstType_0::SimdSha256Hash2            0      0.00%     62.74% # Number of instructions issued per FU type, per thread (Count)
system.cpu.statIssuedInstType_0::SimdShaSigma2            0      0.00%     62.74% # Number of instructions issued per FU type, per thread (Count)
system.cpu.statIssuedInstType_0::SimdShaSigma3            0      0.00%     62.74% # Number of instructions issued per FU type, per thread (Count)
system.cpu.statIssuedInstType_0::SimdPredAlu            0      0.00%     62.74% # Number of instructions issued per FU type, per thread (Count)
system.cpu.statIssuedInstType_0::MemRead     12846971     31.35%     94.10% # Number of instructions issued per FU type, per thread (Count)
system.cpu.statIssuedInstType_0::MemWrite      2418115      5.90%    100.00% # Number of instructions issued per FU type, per thread (Count)
system.cpu.statIssuedInstType_0::FloatMemRead            0      0.00%    100.00% # Number of instructions issued per FU type, per thread (Count)
system.cpu.statIssuedInstType_0::FloatMemWrite            0      0.00%    100.00% # Number of instructions issued per FU type, per thread (Count)
system.cpu.statIssuedInstType_0::IprAccess            0      0.00%    100.00% # Number of instructions issued per FU type, per thread (Count)
system.cpu.statIssuedInstType_0::InstPrefetch            0      0.00%    100.00% # Number of instructions issued per FU type, per thread (Count)
system.cpu.statIssuedInstType_0::total       40972836                       # Number of instructions issued per FU type, per thread (Count)
system.cpu.issueRate                         0.844222                       # Inst issue rate ((Count/Cycle))
system.cpu.fuBusy                              601009                       # FU busy when requested (Count)
system.cpu.fuBusyRate                        0.014668                       # FU busy rate (busy events/executed inst) ((Count/Count))
system.cpu.intInstQueueReads                119644653                       # Number of integer instruction queue reads (Count)
system.cpu.intInstQueueWrites                38911376                       # Number of integer instruction queue writes (Count)
system.cpu.intInstQueueWakeupAccesses        34987986                       # Number of integer instruction queue wakeup accesses (Count)
system.cpu.fpInstQueueReads                         0                       # Number of floating instruction queue reads (Count)
system.cpu.fpInstQueueWrites                        0                       # Number of floating instruction queue writes (Count)
system.cpu.fpInstQueueWakeupAccesses                0                       # Number of floating instruction queue wakeup accesses (Count)
system.cpu.vecInstQueueReads                 11387427                       # Number of vector instruction queue reads (Count)
system.cpu.vecInstQueueWrites                 6368965                       # Number of vector instruction queue writes (Count)
system.cpu.vecInstQueueWakeupAccesses         5644395                       # Number of vector instruction queue wakeup accesses (Count)
system.cpu.intAluAccesses                    35875953                       # Number of integer alu accesses (Count)
system.cpu.fpAluAccesses                            0                       # Number of floating point alu accesses (Count)
system.cpu.vecAluAccesses                     5684218                       # Number of vector alu accesses (Count)
system.cpu.numInsts                          40856942                       # Number of executed instructions (Count)
system.cpu.numLoadInsts                      12824774                       # Number of load instructions executed (Count)
system.cpu.numSquashedInsts                    115894                       # Number of squashed instructions skipped in execute (Count)
system.cpu.numSwp                                   0                       # Number of swp insts executed (Count)
system.cpu.numNop                               26057                       # Number of nop insts executed (Count)
system.cpu.numRefs                           15229891                       # Number of memory reference insts executed (Count)
system.cpu.numBranches                        3472047                       # Number of branches executed (Count)
system.cpu.numStoreInsts                      2405117                       # Number of stores executed (Count)
system.cpu.numRate                           0.841834                       # Inst execution rate ((Count/Cycle))
system.cpu.timesIdled                             748                       # Number of times that the entire CPU went into an idle state and unscheduled itself (Count)
system.cpu.idleCycles                           53423                       # Total number of cycles that the CPU has spent unscheduled due to idling (Cycle)
system.cpu.committedInsts                    37273609                       # Number of Instructions Simulated (Count)
system.cpu.committedOps                      38427141                       # Number of Ops (including micro ops) Simulated (Count)
system.cpu.cpi                               1.302081                       # CPI: Cycles Per Instruction ((Cycle/Count))
system.cpu.totalCpi                          1.302081                       # CPI: Total CPI of All Threads ((Cycle/Count))
system.cpu.ipc                               0.768001                       # IPC: Instructions Per Cycle ((Count/Cycle))
system.cpu.totalIpc                          0.768001                       # IPC: Total IPC of All Threads ((Count/Cycle))
system.cpu.intRegfileReads                   44327030                       # Number of integer regfile reads (Count)
system.cpu.intRegfileWrites                  30046056                       # Number of integer regfile writes (Count)
system.cpu.vecRegfileReads                    4426777                       # number of vector regfile reads (Count)
system.cpu.vecRegfileWrites                   4430046                       # number of vector regfile writes (Count)
system.cpu.ccRegfileReads                     9117735                       # number of cc regfile reads (Count)
system.cpu.ccRegfileWrites                    9607380                       # number of cc regfile writes (Count)
system.cpu.miscRegfileReads                  89855036                       # number of misc regfile reads (Count)
system.cpu.miscRegfileWrites                  1724966                       # number of misc regfile writes (Count)
system.cpu.MemDepUnit__0.insertedLoads       12942644                       # Number of loads inserted to the mem dependence unit. (Count)
system.cpu.MemDepUnit__0.insertedStores       2485174                       # Number of stores inserted to the mem dependence unit. (Count)
system.cpu.MemDepUnit__0.conflictingLoads      3304477                       # Number of conflicting loads. (Count)
system.cpu.MemDepUnit__0.conflictingStores       652499                       # Number of conflicting stores. (Count)
system.cpu.MemDepUnit__1.insertedLoads              0                       # Number of loads inserted to the mem dependence unit. (Count)
system.cpu.MemDepUnit__1.insertedStores             0                       # Number of stores inserted to the mem dependence unit. (Count)
system.cpu.MemDepUnit__1.conflictingLoads            0                       # Number of conflicting loads. (Count)
system.cpu.MemDepUnit__1.conflictingStores            0                       # Number of conflicting stores. (Count)
system.cpu.MemDepUnit__2.insertedLoads              0                       # Number of loads inserted to the mem dependence unit. (Count)
system.cpu.MemDepUnit__2.insertedStores             0                       # Number of stores inserted to the mem dependence unit. (Count)
system.cpu.MemDepUnit__2.conflictingLoads            0                       # Number of conflicting loads. (Count)
system.cpu.MemDepUnit__2.conflictingStores            0                       # Number of conflicting stores. (Count)
system.cpu.MemDepUnit__3.insertedLoads              0                       # Number of loads inserted to the mem dependence unit. (Count)
system.cpu.MemDepUnit__3.insertedStores             0                       # Number of stores inserted to the mem dependence unit. (Count)
system.cpu.MemDepUnit__3.conflictingLoads            0                       # Number of conflicting loads. (Count)
system.cpu.MemDepUnit__3.conflictingStores            0                       # Number of conflicting stores. (Count)
system.cpu.branchPred.lookups                 3750402                       # Number of BP lookups (Count)
system.cpu.branchPred.condPredicted           3272379                       # Number of conditional branches predicted (Count)
system.cpu.branchPred.condIncorrect             74899                       # Number of conditional branches incorrect (Count)
system.cpu.branchPred.BTBLookups              2689226                       # Number of BTB lookups (Count)
system.cpu.branchPred.BTBHits                 2686802                       # Number of BTB hits (Count)
system.cpu.branchPred.BTBHitRatio            0.999099                       # BTB Hit Ratio (Ratio)
system.cpu.branchPred.RASUsed                  151986                       # Number of times the RAS was used to get a target. (Count)
system.cpu.branchPred.RASIncorrect                  5                       # Number of incorrect RAS predictions. (Count)
system.cpu.branchPred.indirectLookups           36618                       # Number of indirect predictor lookups. (Count)
system.cpu.branchPred.indirectHits              35927                       # Number of indirect target hits. (Count)
system.cpu.branchPred.indirectMisses              691                       # Number of indirect misses. (Count)
system.cpu.branchPred.indirectMispredicted           99                       # Number of mispredicted indirect branches. (Count)
system.cpu.commit.commitSquashedInsts         3434740                       # The number of squashed insts skipped by commit (Count)
system.cpu.commit.commitNonSpecStalls             213                       # The number of times commit has been forced to stall to communicate backwards (Count)
system.cpu.commit.branchMispredicts             74476                       # The number of times a branch was mispredicted (Count)
system.cpu.commit.numCommittedDist::samples     48019309                       # Number of insts commited each cycle (Count)
system.cpu.commit.numCommittedDist::mean     0.800728                       # Number of insts commited each cycle (Count)
system.cpu.commit.numCommittedDist::stdev     2.131022                       # Number of insts commited each cycle (Count)
system.cpu.commit.numCommittedDist::underflows            0      0.00%      0.00% # Number of insts commited each cycle (Count)
system.cpu.commit.numCommittedDist::0        38394411     79.96%     79.96% # Number of insts commited each cycle (Count)
system.cpu.commit.numCommittedDist::1         4052813      8.44%     88.40% # Number of insts commited each cycle (Count)
system.cpu.commit.numCommittedDist::2          940777      1.96%     90.36% # Number of insts commited each cycle (Count)
system.cpu.commit.numCommittedDist::3          315105      0.66%     91.01% # Number of insts commited each cycle (Count)
system.cpu.commit.numCommittedDist::4          199462      0.42%     91.43% # Number of insts commited each cycle (Count)
system.cpu.commit.numCommittedDist::5          624475      1.30%     92.73% # Number of insts commited each cycle (Count)
system.cpu.commit.numCommittedDist::6          105317      0.22%     92.95% # Number of insts commited each cycle (Count)
system.cpu.commit.numCommittedDist::7           77009      0.16%     93.11% # Number of insts commited each cycle (Count)
system.cpu.commit.numCommittedDist::8         3309940      6.89%    100.00% # Number of insts commited each cycle (Count)
system.cpu.commit.numCommittedDist::overflows            0      0.00%    100.00% # Number of insts commited each cycle (Count)
system.cpu.commit.numCommittedDist::min_value            0                       # Number of insts commited each cycle (Count)
system.cpu.commit.numCommittedDist::max_value            8                       # Number of insts commited each cycle (Count)
system.cpu.commit.numCommittedDist::total     48019309                       # Number of insts commited each cycle (Count)
system.cpu.commit.instsCommitted             37296858                       # Number of instructions committed (Count)
system.cpu.commit.opsCommitted               38450390                       # Number of ops (including micro ops) committed (Count)
system.cpu.commit.memRefs                    14169664                       # Number of memory references committed (Count)
system.cpu.commit.loads                      11863771                       # Number of loads committed (Count)
system.cpu.commit.amos                             20                       # Number of atomic instructions committed (Count)
system.cpu.commit.membars                          24                       # Number of memory barriers committed (Count)
system.cpu.commit.branches                    3343867                       # Number of branches committed (Count)
system.cpu.commit.vectorInstructions          5522233                       # Number of committed Vector instructions. (Count)
system.cpu.commit.floating                          0                       # Number of committed floating point instructions. (Count)
system.cpu.commit.integer                    33886787                       # Number of committed integer instructions. (Count)
system.cpu.commit.functionCalls                133220                       # Number of function calls committed. (Count)
system.cpu.commit.committedInstType_0::No_OpClass        13508      0.04%      0.04% # Class of committed instruction (Count)
system.cpu.commit.committedInstType_0::IntAlu     22276957     57.94%     57.97% # Class of committed instruction (Count)
system.cpu.commit.committedInstType_0::IntMult        43827      0.11%     58.09% # Class of committed instruction (Count)
system.cpu.commit.committedInstType_0::IntDiv        16515      0.04%     58.13% # Class of committed instruction (Count)
system.cpu.commit.committedInstType_0::FloatAdd      1155641      3.01%     61.13% # Class of committed instruction (Count)
system.cpu.commit.committedInstType_0::FloatCmp       569268      1.48%     62.62% # Class of committed instruction (Count)
system.cpu.commit.committedInstType_0::FloatCvt            0      0.00%     62.62% # Class of committed instruction (Count)
system.cpu.commit.committedInstType_0::FloatMult            0      0.00%     62.62% # Class of committed instruction (Count)
system.cpu.commit.committedInstType_0::FloatMultAcc            0      0.00%     62.62% # Class of committed instruction (Count)
system.cpu.commit.committedInstType_0::FloatDiv            0      0.00%     62.62% # Class of committed instruction (Count)
system.cpu.commit.committedInstType_0::FloatMisc        24242      0.06%     62.68% # Class of committed instruction (Count)
system.cpu.commit.committedInstType_0::FloatSqrt            0      0.00%     62.68% # Class of committed instruction (Count)
system.cpu.commit.committedInstType_0::SimdAdd        31905      0.08%     62.76% # Class of committed instruction (Count)
system.cpu.commit.committedInstType_0::SimdAddAcc            0      0.00%     62.76% # Class of committed instruction (Count)
system.cpu.commit.committedInstType_0::SimdAlu        58862      0.15%     62.91% # Class of committed instruction (Count)
system.cpu.commit.committedInstType_0::SimdCmp        53936      0.14%     63.05% # Class of committed instruction (Count)
system.cpu.commit.committedInstType_0::SimdCvt            0      0.00%     63.05% # Class of committed instruction (Count)
system.cpu.commit.committedInstType_0::SimdMisc        36065      0.09%     63.15% # Class of committed instruction (Count)
system.cpu.commit.committedInstType_0::SimdMult            0      0.00%     63.15% # Class of committed instruction (Count)
system.cpu.commit.committedInstType_0::SimdMultAcc            0      0.00%     63.15% # Class of committed instruction (Count)
system.cpu.commit.committedInstType_0::SimdShift            0      0.00%     63.15% # Class of committed instruction (Count)
system.cpu.commit.committedInstType_0::SimdShiftAcc            0      0.00%     63.15% # Class of committed instruction (Count)
system.cpu.commit.committedInstType_0::SimdDiv            0      0.00%     63.15% # Class of committed instruction (Count)
system.cpu.commit.committedInstType_0::SimdSqrt            0      0.00%     63.15% # Class of committed instruction (Count)
system.cpu.commit.committedInstType_0::SimdFloatAdd            0      0.00%     63.15% # Class of committed instruction (Count)
system.cpu.commit.committedInstType_0::SimdFloatAlu            0      0.00%     63.15% # Class of committed instruction (Count)
system.cpu.commit.committedInstType_0::SimdFloatCmp            0      0.00%     63.15% # Class of committed instruction (Count)
system.cpu.commit.committedInstType_0::SimdFloatCvt            0      0.00%     63.15% # Class of committed instruction (Count)
system.cpu.commit.committedInstType_0::SimdFloatDiv            0      0.00%     63.15% # Class of committed instruction (Count)
system.cpu.commit.committedInstType_0::SimdFloatMisc            0      0.00%     63.15% # Class of committed instruction (Count)
system.cpu.commit.committedInstType_0::SimdFloatMult            0      0.00%     63.15% # Class of committed instruction (Count)
system.cpu.commit.committedInstType_0::SimdFloatMultAcc            0      0.00%     63.15% # Class of committed instruction (Count)
system.cpu.commit.committedInstType_0::SimdFloatSqrt            0      0.00%     63.15% # Class of committed instruction (Count)
system.cpu.commit.committedInstType_0::SimdReduceAdd            0      0.00%     63.15% # Class of committed instruction (Count)
system.cpu.commit.committedInstType_0::SimdReduceAlu            0      0.00%     63.15% # Class of committed instruction (Count)
system.cpu.commit.committedInstType_0::SimdReduceCmp            0      0.00%     63.15% # Class of committed instruction (Count)
system.cpu.commit.committedInstType_0::SimdFloatReduceAdd            0      0.00%     63.15% # Class of committed instruction (Count)
system.cpu.commit.committedInstType_0::SimdFloatReduceCmp            0      0.00%     63.15% # Class of committed instruction (Count)
system.cpu.commit.committedInstType_0::SimdAes            0      0.00%     63.15% # Class of committed instruction (Count)
system.cpu.commit.committedInstType_0::SimdAesMix            0      0.00%     63.15% # Class of committed instruction (Count)
system.cpu.commit.committedInstType_0::SimdSha1Hash            0      0.00%     63.15% # Class of committed instruction (Count)
system.cpu.commit.committedInstType_0::SimdSha1Hash2            0      0.00%     63.15% # Class of committed instruction (Count)
system.cpu.commit.committedInstType_0::SimdSha256Hash            0      0.00%     63.15% # Class of committed instruction (Count)
system.cpu.commit.committedInstType_0::SimdSha256Hash2            0      0.00%     63.15% # Class of committed instruction (Count)
system.cpu.commit.committedInstType_0::SimdShaSigma2            0      0.00%     63.15% # Class of committed instruction (Count)
system.cpu.commit.committedInstType_0::SimdShaSigma3            0      0.00%     63.15% # Class of committed instruction (Count)
system.cpu.commit.committedInstType_0::SimdPredAlu            0      0.00%     63.15% # Class of committed instruction (Count)
system.cpu.commit.committedInstType_0::MemRead     11863771     30.85%     94.00% # Class of committed instruction (Count)
system.cpu.commit.committedInstType_0::MemWrite      2305893      6.00%    100.00% # Class of committed instruction (Count)
system.cpu.commit.committedInstType_0::FloatMemRead            0      0.00%    100.00% # Class of committed instruction (Count)
system.cpu.commit.committedInstType_0::FloatMemWrite            0      0.00%    100.00% # Class of committed instruction (Count)
system.cpu.commit.committedInstType_0::IprAccess            0      0.00%    100.00% # Class of committed instruction (Count)
system.cpu.commit.committedInstType_0::InstPrefetch            0      0.00%    100.00% # Class of committed instruction (Count)
system.cpu.commit.committedInstType_0::total     38450390                       # Class of committed instruction (Count)
system.cpu.commit.commitEligibleSamples       3309940                       # number cycles where commit BW limit reached (Cycle)
system.cpu.dcache.demandHits::cpu.data       10378987                       # number of demand (read+write) hits (Count)
system.cpu.dcache.demandHits::total          10378987                       # number of demand (read+write) hits (Count)
system.cpu.dcache.overallHits::cpu.data      10394248                       # number of overall hits (Count)
system.cpu.dcache.overallHits::total         10394248                       # number of overall hits (Count)
system.cpu.dcache.demandMisses::cpu.data      1073267                       # number of demand (read+write) misses (Count)
system.cpu.dcache.demandMisses::total         1073267                       # number of demand (read+write) misses (Count)
system.cpu.dcache.overallMisses::cpu.data      1075297                       # number of overall misses (Count)
system.cpu.dcache.overallMisses::total        1075297                       # number of overall misses (Count)
system.cpu.dcache.demandMissLatency::cpu.data  48596349429                       # number of demand (read+write) miss ticks (Tick)
system.cpu.dcache.demandMissLatency::total  48596349429                       # number of demand (read+write) miss ticks (Tick)
system.cpu.dcache.overallMissLatency::cpu.data  48596349429                       # number of overall miss ticks (Tick)
system.cpu.dcache.overallMissLatency::total  48596349429                       # number of overall miss ticks (Tick)
system.cpu.dcache.demandAccesses::cpu.data     11452254                       # number of demand (read+write) accesses (Count)
system.cpu.dcache.demandAccesses::total      11452254                       # number of demand (read+write) accesses (Count)
system.cpu.dcache.overallAccesses::cpu.data     11469545                       # number of overall (read+write) accesses (Count)
system.cpu.dcache.overallAccesses::total     11469545                       # number of overall (read+write) accesses (Count)
system.cpu.dcache.demandMissRate::cpu.data     0.093717                       # miss rate for demand accesses (Ratio)
system.cpu.dcache.demandMissRate::total      0.093717                       # miss rate for demand accesses (Ratio)
system.cpu.dcache.overallMissRate::cpu.data     0.093752                       # miss rate for overall accesses (Ratio)
system.cpu.dcache.overallMissRate::total     0.093752                       # miss rate for overall accesses (Ratio)
system.cpu.dcache.demandAvgMissLatency::cpu.data 45278.900245                       # average overall miss latency ((Cycle/Count))
system.cpu.dcache.demandAvgMissLatency::total 45278.900245                       # average overall miss latency ((Cycle/Count))
system.cpu.dcache.overallAvgMissLatency::cpu.data 45193.420449                       # average overall miss latency ((Cycle/Count))
system.cpu.dcache.overallAvgMissLatency::total 45193.420449                       # average overall miss latency ((Cycle/Count))
system.cpu.dcache.blockedCycles::no_mshrs       285928                       # number of cycles access was blocked (Cycle)
system.cpu.dcache.blockedCycles::no_targets         3901                       # number of cycles access was blocked (Cycle)
system.cpu.dcache.blockedCauses::no_mshrs        15026                       # number of times access was blocked (Count)
system.cpu.dcache.blockedCauses::no_targets          387                       # number of times access was blocked (Count)
system.cpu.dcache.avgBlocked::no_mshrs      19.028883                       # average number of cycles each access was blocked ((Cycle/Count))
system.cpu.dcache.avgBlocked::no_targets    10.080103                       # average number of cycles each access was blocked ((Cycle/Count))
system.cpu.dcache.writebacks::writebacks        77354                       # number of writebacks (Count)
system.cpu.dcache.writebacks::total             77354                       # number of writebacks (Count)
system.cpu.dcache.demandMshrHits::cpu.data       305580                       # number of demand (read+write) MSHR hits (Count)
system.cpu.dcache.demandMshrHits::total        305580                       # number of demand (read+write) MSHR hits (Count)
system.cpu.dcache.overallMshrHits::cpu.data       305580                       # number of overall MSHR hits (Count)
system.cpu.dcache.overallMshrHits::total       305580                       # number of overall MSHR hits (Count)
system.cpu.dcache.demandMshrMisses::cpu.data       767687                       # number of demand (read+write) MSHR misses (Count)
system.cpu.dcache.demandMshrMisses::total       767687                       # number of demand (read+write) MSHR misses (Count)
system.cpu.dcache.overallMshrMisses::cpu.data       769641                       # number of overall MSHR misses (Count)
system.cpu.dcache.overallMshrMisses::total       769641                       # number of overall MSHR misses (Count)
system.cpu.dcache.demandMshrMissLatency::cpu.data  38878254968                       # number of demand (read+write) MSHR miss ticks (Tick)
system.cpu.dcache.demandMshrMissLatency::total  38878254968                       # number of demand (read+write) MSHR miss ticks (Tick)
system.cpu.dcache.overallMshrMissLatency::cpu.data  38993448468                       # number of overall MSHR miss ticks (Tick)
system.cpu.dcache.overallMshrMissLatency::total  38993448468                       # number of overall MSHR miss ticks (Tick)
system.cpu.dcache.demandMshrMissRate::cpu.data     0.067034                       # mshr miss ratio for demand accesses (Ratio)
system.cpu.dcache.demandMshrMissRate::total     0.067034                       # mshr miss ratio for demand accesses (Ratio)
system.cpu.dcache.overallMshrMissRate::cpu.data     0.067103                       # mshr miss ratio for overall accesses (Ratio)
system.cpu.dcache.overallMshrMissRate::total     0.067103                       # mshr miss ratio for overall accesses (Ratio)
system.cpu.dcache.demandAvgMshrMissLatency::cpu.data 50643.367633                       # average overall mshr miss latency ((Cycle/Count))
system.cpu.dcache.demandAvgMshrMissLatency::total 50643.367633                       # average overall mshr miss latency ((Cycle/Count))
system.cpu.dcache.overallAvgMshrMissLatency::cpu.data 50664.463650                       # average overall mshr miss latency ((Cycle/Count))
system.cpu.dcache.overallAvgMshrMissLatency::total 50664.463650                       # average overall mshr miss latency ((Cycle/Count))
system.cpu.dcache.replacements                 769612                       # number of replacements (Count)
system.cpu.dcache.LoadLockedReq.hits::cpu.data            8                       # number of LoadLockedReq hits (Count)
system.cpu.dcache.LoadLockedReq.hits::total            8                       # number of LoadLockedReq hits (Count)
system.cpu.dcache.LoadLockedReq.misses::cpu.data            1                       # number of LoadLockedReq misses (Count)
system.cpu.dcache.LoadLockedReq.misses::total            1                       # number of LoadLockedReq misses (Count)
system.cpu.dcache.LoadLockedReq.missLatency::cpu.data        65500                       # number of LoadLockedReq miss ticks (Tick)
system.cpu.dcache.LoadLockedReq.missLatency::total        65500                       # number of LoadLockedReq miss ticks (Tick)
system.cpu.dcache.LoadLockedReq.accesses::cpu.data            9                       # number of LoadLockedReq accesses(hits+misses) (Count)
system.cpu.dcache.LoadLockedReq.accesses::total            9                       # number of LoadLockedReq accesses(hits+misses) (Count)
system.cpu.dcache.LoadLockedReq.missRate::cpu.data     0.111111                       # miss rate for LoadLockedReq accesses (Ratio)
system.cpu.dcache.LoadLockedReq.missRate::total     0.111111                       # miss rate for LoadLockedReq accesses (Ratio)
system.cpu.dcache.LoadLockedReq.avgMissLatency::cpu.data        65500                       # average LoadLockedReq miss latency ((Tick/Count))
system.cpu.dcache.LoadLockedReq.avgMissLatency::total        65500                       # average LoadLockedReq miss latency ((Tick/Count))
system.cpu.dcache.LoadLockedReq.mshrMisses::cpu.data            1                       # number of LoadLockedReq MSHR misses (Count)
system.cpu.dcache.LoadLockedReq.mshrMisses::total            1                       # number of LoadLockedReq MSHR misses (Count)
system.cpu.dcache.LoadLockedReq.mshrMissLatency::cpu.data        64500                       # number of LoadLockedReq MSHR miss ticks (Tick)
system.cpu.dcache.LoadLockedReq.mshrMissLatency::total        64500                       # number of LoadLockedReq MSHR miss ticks (Tick)
system.cpu.dcache.LoadLockedReq.mshrMissRate::cpu.data     0.111111                       # mshr miss rate for LoadLockedReq accesses (Ratio)
system.cpu.dcache.LoadLockedReq.mshrMissRate::total     0.111111                       # mshr miss rate for LoadLockedReq accesses (Ratio)
system.cpu.dcache.LoadLockedReq.avgMshrMissLatency::cpu.data        64500                       # average LoadLockedReq mshr miss latency ((Tick/Count))
system.cpu.dcache.LoadLockedReq.avgMshrMissLatency::total        64500                       # average LoadLockedReq mshr miss latency ((Tick/Count))
system.cpu.dcache.ReadReq.hits::cpu.data      8238289                       # number of ReadReq hits (Count)
system.cpu.dcache.ReadReq.hits::total         8238289                       # number of ReadReq hits (Count)
system.cpu.dcache.ReadReq.misses::cpu.data       908095                       # number of ReadReq misses (Count)
system.cpu.dcache.ReadReq.misses::total        908095                       # number of ReadReq misses (Count)
system.cpu.dcache.ReadReq.missLatency::cpu.data  45362422000                       # number of ReadReq miss ticks (Tick)
system.cpu.dcache.ReadReq.missLatency::total  45362422000                       # number of ReadReq miss ticks (Tick)
system.cpu.dcache.ReadReq.accesses::cpu.data      9146384                       # number of ReadReq accesses(hits+misses) (Count)
system.cpu.dcache.ReadReq.accesses::total      9146384                       # number of ReadReq accesses(hits+misses) (Count)
system.cpu.dcache.ReadReq.missRate::cpu.data     0.099285                       # miss rate for ReadReq accesses (Ratio)
system.cpu.dcache.ReadReq.missRate::total     0.099285                       # miss rate for ReadReq accesses (Ratio)
system.cpu.dcache.ReadReq.avgMissLatency::cpu.data 49953.388137                       # average ReadReq miss latency ((Tick/Count))
system.cpu.dcache.ReadReq.avgMissLatency::total 49953.388137                       # average ReadReq miss latency ((Tick/Count))
system.cpu.dcache.ReadReq.mshrHits::cpu.data       198560                       # number of ReadReq MSHR hits (Count)
system.cpu.dcache.ReadReq.mshrHits::total       198560                       # number of ReadReq MSHR hits (Count)
system.cpu.dcache.ReadReq.mshrMisses::cpu.data       709535                       # number of ReadReq MSHR misses (Count)
system.cpu.dcache.ReadReq.mshrMisses::total       709535                       # number of ReadReq MSHR misses (Count)
system.cpu.dcache.ReadReq.mshrMissLatency::cpu.data  37554347500                       # number of ReadReq MSHR miss ticks (Tick)
system.cpu.dcache.ReadReq.mshrMissLatency::total  37554347500                       # number of ReadReq MSHR miss ticks (Tick)
system.cpu.dcache.ReadReq.mshrMissRate::cpu.data     0.077575                       # mshr miss rate for ReadReq accesses (Ratio)
system.cpu.dcache.ReadReq.mshrMissRate::total     0.077575                       # mshr miss rate for ReadReq accesses (Ratio)
system.cpu.dcache.ReadReq.avgMshrMissLatency::cpu.data 52928.111369                       # average ReadReq mshr miss latency ((Tick/Count))
system.cpu.dcache.ReadReq.avgMshrMissLatency::total 52928.111369                       # average ReadReq mshr miss latency ((Tick/Count))
system.cpu.dcache.SoftPFReq.hits::cpu.data        15261                       # number of SoftPFReq hits (Count)
system.cpu.dcache.SoftPFReq.hits::total         15261                       # number of SoftPFReq hits (Count)
system.cpu.dcache.SoftPFReq.misses::cpu.data         2030                       # number of SoftPFReq misses (Count)
system.cpu.dcache.SoftPFReq.misses::total         2030                       # number of SoftPFReq misses (Count)
system.cpu.dcache.SoftPFReq.accesses::cpu.data        17291                       # number of SoftPFReq accesses(hits+misses) (Count)
system.cpu.dcache.SoftPFReq.accesses::total        17291                       # number of SoftPFReq accesses(hits+misses) (Count)
system.cpu.dcache.SoftPFReq.missRate::cpu.data     0.117402                       # miss rate for SoftPFReq accesses (Ratio)
system.cpu.dcache.SoftPFReq.missRate::total     0.117402                       # miss rate for SoftPFReq accesses (Ratio)
system.cpu.dcache.SoftPFReq.mshrMisses::cpu.data         1954                       # number of SoftPFReq MSHR misses (Count)
system.cpu.dcache.SoftPFReq.mshrMisses::total         1954                       # number of SoftPFReq MSHR misses (Count)
system.cpu.dcache.SoftPFReq.mshrMissLatency::cpu.data    115193500                       # number of SoftPFReq MSHR miss ticks (Tick)
system.cpu.dcache.SoftPFReq.mshrMissLatency::total    115193500                       # number of SoftPFReq MSHR miss ticks (Tick)
system.cpu.dcache.SoftPFReq.mshrMissRate::cpu.data     0.113007                       # mshr miss rate for SoftPFReq accesses (Ratio)
system.cpu.dcache.SoftPFReq.mshrMissRate::total     0.113007                       # mshr miss rate for SoftPFReq accesses (Ratio)
system.cpu.dcache.SoftPFReq.avgMshrMissLatency::cpu.data 58952.661208                       # average SoftPFReq mshr miss latency ((Tick/Count))
system.cpu.dcache.SoftPFReq.avgMshrMissLatency::total 58952.661208                       # average SoftPFReq mshr miss latency ((Tick/Count))
system.cpu.dcache.StoreCondReq.hits::cpu.data            4                       # number of StoreCondReq hits (Count)
system.cpu.dcache.StoreCondReq.hits::total            4                       # number of StoreCondReq hits (Count)
system.cpu.dcache.StoreCondReq.accesses::cpu.data            4                       # number of StoreCondReq accesses(hits+misses) (Count)
system.cpu.dcache.StoreCondReq.accesses::total            4                       # number of StoreCondReq accesses(hits+misses) (Count)
system.cpu.dcache.SwapReq.hits::cpu.data           18                       # number of SwapReq hits (Count)
system.cpu.dcache.SwapReq.hits::total              18                       # number of SwapReq hits (Count)
system.cpu.dcache.SwapReq.misses::cpu.data            2                       # number of SwapReq misses (Count)
system.cpu.dcache.SwapReq.misses::total             2                       # number of SwapReq misses (Count)
system.cpu.dcache.SwapReq.missLatency::cpu.data       345000                       # number of SwapReq miss ticks (Tick)
system.cpu.dcache.SwapReq.missLatency::total       345000                       # number of SwapReq miss ticks (Tick)
system.cpu.dcache.SwapReq.accesses::cpu.data           20                       # number of SwapReq accesses(hits+misses) (Count)
system.cpu.dcache.SwapReq.accesses::total           20                       # number of SwapReq accesses(hits+misses) (Count)
system.cpu.dcache.SwapReq.missRate::cpu.data     0.100000                       # miss rate for SwapReq accesses (Ratio)
system.cpu.dcache.SwapReq.missRate::total     0.100000                       # miss rate for SwapReq accesses (Ratio)
system.cpu.dcache.SwapReq.avgMissLatency::cpu.data       172500                       # average SwapReq miss latency ((Tick/Count))
system.cpu.dcache.SwapReq.avgMissLatency::total       172500                       # average SwapReq miss latency ((Tick/Count))
system.cpu.dcache.SwapReq.mshrMisses::cpu.data            2                       # number of SwapReq MSHR misses (Count)
system.cpu.dcache.SwapReq.mshrMisses::total            2                       # number of SwapReq MSHR misses (Count)
system.cpu.dcache.SwapReq.mshrMissLatency::cpu.data       343000                       # number of SwapReq MSHR miss ticks (Tick)
system.cpu.dcache.SwapReq.mshrMissLatency::total       343000                       # number of SwapReq MSHR miss ticks (Tick)
system.cpu.dcache.SwapReq.mshrMissRate::cpu.data     0.100000                       # mshr miss rate for SwapReq accesses (Ratio)
system.cpu.dcache.SwapReq.mshrMissRate::total     0.100000                       # mshr miss rate for SwapReq accesses (Ratio)
system.cpu.dcache.SwapReq.avgMshrMissLatency::cpu.data       171500                       # average SwapReq mshr miss latency ((Tick/Count))
system.cpu.dcache.SwapReq.avgMshrMissLatency::total       171500                       # average SwapReq mshr miss latency ((Tick/Count))
system.cpu.dcache.WriteLineReq.misses::cpu.data         2073                       # number of WriteLineReq misses (Count)
system.cpu.dcache.WriteLineReq.misses::total         2073                       # number of WriteLineReq misses (Count)
system.cpu.dcache.WriteLineReq.missLatency::cpu.data     41198002                       # number of WriteLineReq miss ticks (Tick)
system.cpu.dcache.WriteLineReq.missLatency::total     41198002                       # number of WriteLineReq miss ticks (Tick)
system.cpu.dcache.WriteLineReq.accesses::cpu.data         2073                       # number of WriteLineReq accesses(hits+misses) (Count)
system.cpu.dcache.WriteLineReq.accesses::total         2073                       # number of WriteLineReq accesses(hits+misses) (Count)
system.cpu.dcache.WriteLineReq.missRate::cpu.data            1                       # miss rate for WriteLineReq accesses (Ratio)
system.cpu.dcache.WriteLineReq.missRate::total            1                       # miss rate for WriteLineReq accesses (Ratio)
system.cpu.dcache.WriteLineReq.avgMissLatency::cpu.data 19873.614086                       # average WriteLineReq miss latency ((Tick/Count))
system.cpu.dcache.WriteLineReq.avgMissLatency::total 19873.614086                       # average WriteLineReq miss latency ((Tick/Count))
system.cpu.dcache.WriteLineReq.mshrMisses::cpu.data         2073                       # number of WriteLineReq MSHR misses (Count)
system.cpu.dcache.WriteLineReq.mshrMisses::total         2073                       # number of WriteLineReq MSHR misses (Count)
system.cpu.dcache.WriteLineReq.mshrMissLatency::cpu.data     39125002                       # number of WriteLineReq MSHR miss ticks (Tick)
system.cpu.dcache.WriteLineReq.mshrMissLatency::total     39125002                       # number of WriteLineReq MSHR miss ticks (Tick)
system.cpu.dcache.WriteLineReq.mshrMissRate::cpu.data            1                       # mshr miss rate for WriteLineReq accesses (Ratio)
system.cpu.dcache.WriteLineReq.mshrMissRate::total            1                       # mshr miss rate for WriteLineReq accesses (Ratio)
system.cpu.dcache.WriteLineReq.avgMshrMissLatency::cpu.data 18873.614086                       # average WriteLineReq mshr miss latency ((Tick/Count))
system.cpu.dcache.WriteLineReq.avgMshrMissLatency::total 18873.614086                       # average WriteLineReq mshr miss latency ((Tick/Count))
system.cpu.dcache.WriteReq.hits::cpu.data      2140698                       # number of WriteReq hits (Count)
system.cpu.dcache.WriteReq.hits::total        2140698                       # number of WriteReq hits (Count)
system.cpu.dcache.WriteReq.misses::cpu.data       163099                       # number of WriteReq misses (Count)
system.cpu.dcache.WriteReq.misses::total       163099                       # number of WriteReq misses (Count)
system.cpu.dcache.WriteReq.missLatency::cpu.data   3192729427                       # number of WriteReq miss ticks (Tick)
system.cpu.dcache.WriteReq.missLatency::total   3192729427                       # number of WriteReq miss ticks (Tick)
system.cpu.dcache.WriteReq.accesses::cpu.data      2303797                       # number of WriteReq accesses(hits+misses) (Count)
system.cpu.dcache.WriteReq.accesses::total      2303797                       # number of WriteReq accesses(hits+misses) (Count)
system.cpu.dcache.WriteReq.missRate::cpu.data     0.070796                       # miss rate for WriteReq accesses (Ratio)
system.cpu.dcache.WriteReq.missRate::total     0.070796                       # miss rate for WriteReq accesses (Ratio)
system.cpu.dcache.WriteReq.avgMissLatency::cpu.data 19575.407740                       # average WriteReq miss latency ((Tick/Count))
system.cpu.dcache.WriteReq.avgMissLatency::total 19575.407740                       # average WriteReq miss latency ((Tick/Count))
system.cpu.dcache.WriteReq.mshrHits::cpu.data       107020                       # number of WriteReq MSHR hits (Count)
system.cpu.dcache.WriteReq.mshrHits::total       107020                       # number of WriteReq MSHR hits (Count)
system.cpu.dcache.WriteReq.mshrMisses::cpu.data        56079                       # number of WriteReq MSHR misses (Count)
system.cpu.dcache.WriteReq.mshrMisses::total        56079                       # number of WriteReq MSHR misses (Count)
system.cpu.dcache.WriteReq.mshrMissLatency::cpu.data   1284782466                       # number of WriteReq MSHR miss ticks (Tick)
system.cpu.dcache.WriteReq.mshrMissLatency::total   1284782466                       # number of WriteReq MSHR miss ticks (Tick)
system.cpu.dcache.WriteReq.mshrMissRate::cpu.data     0.024342                       # mshr miss rate for WriteReq accesses (Ratio)
system.cpu.dcache.WriteReq.mshrMissRate::total     0.024342                       # mshr miss rate for WriteReq accesses (Ratio)
system.cpu.dcache.WriteReq.avgMshrMissLatency::cpu.data 22910.224255                       # average WriteReq mshr miss latency ((Tick/Count))
system.cpu.dcache.WriteReq.avgMshrMissLatency::total 22910.224255                       # average WriteReq mshr miss latency ((Tick/Count))
system.cpu.dcache.power_state.pwrStateResidencyTicks::UNDEFINED  24266631000                       # Cumulative time (in ticks) in various power states (Tick)
system.cpu.dcache.tags.tagsInUse            31.997668                       # Average ticks per tags in use ((Tick/Count))
system.cpu.dcache.tags.totalRefs             11163922                       # Total number of references to valid blocks. (Count)
system.cpu.dcache.tags.sampledRefs             769644                       # Sample count of references to valid blocks. (Count)
system.cpu.dcache.tags.avgRefs              14.505306                       # Average number of references to valid blocks. ((Count/Count))
system.cpu.dcache.tags.warmupTick              145000                       # The tick when the warmup percentage was hit. (Tick)
system.cpu.dcache.tags.occupancies::cpu.data    31.997668                       # Average occupied blocks per tick, per requestor ((Count/Tick))
system.cpu.dcache.tags.avgOccs::cpu.data     0.999927                       # Average percentage of cache occupancy ((Ratio/Tick))
system.cpu.dcache.tags.avgOccs::total        0.999927                       # Average percentage of cache occupancy ((Ratio/Tick))
system.cpu.dcache.tags.occupanciesTaskId::1024           32                       # Occupied blocks per task id (Count)
system.cpu.dcache.tags.ageTaskId_1024::0           32                       # Occupied blocks per task id, per block age (Count)
system.cpu.dcache.tags.ratioOccsTaskId::1024            1                       # Ratio of occupied blocks and all blocks, per task id (Ratio)
system.cpu.dcache.tags.tagAccesses           23708800                       # Number of tag accesses (Count)
system.cpu.dcache.tags.dataAccesses          23708800                       # Number of data accesses (Count)
system.cpu.dcache.tags.power_state.pwrStateResidencyTicks::UNDEFINED  24266631000                       # Cumulative time (in ticks) in various power states (Tick)
system.cpu.decode.idleCycles                  2543042                       # Number of cycles decode is idle (Cycle)
system.cpu.decode.blockedCycles              39386585                       # Number of cycles decode is blocked (Cycle)
system.cpu.decode.runCycles                   4445660                       # Number of cycles decode is running (Cycle)
system.cpu.decode.unblockCycles               2029263                       # Number of cycles decode is unblocking (Cycle)
system.cpu.decode.squashCycles                  75290                       # Number of cycles decode is squashing (Cycle)
system.cpu.decode.branchResolved              2606451                       # Number of times decode resolved a branch (Count)
system.cpu.decode.branchMispred                   432                       # Number of times decode detected a branch misprediction (Count)
system.cpu.decode.decodedInsts               42644642                       # Number of instructions handled by decode (Count)
system.cpu.decode.squashedInsts                  1635                       # Number of squashed instructions handled by decode (Count)
system.cpu.fetch.icacheStallCycles            4983679                       # Number of cycles fetch is stalled on an Icache miss (Cycle)
system.cpu.fetch.insts                       43222503                       # Number of instructions fetch has processed (Count)
system.cpu.fetch.branches                     3750402                       # Number of branches that fetch encountered (Count)
system.cpu.fetch.predictedBranches            2874715                       # Number of branches that fetch has predicted taken (Count)
system.cpu.fetch.cycles                      43420352                       # Number of cycles fetch has run and was not squashing or blocked (Cycle)
system.cpu.fetch.squashCycles                  151426                       # Number of cycles fetch has spent squashing (Cycle)
system.cpu.fetch.miscStallCycles                   63                       # Number of cycles fetch has spent waiting on interrupts, or bad addresses, or out of MSHRs (Cycle)
system.cpu.fetch.icacheWaitRetryStallCycles           33                       # Number of stall cycles due to full MSHR (Cycle)
system.cpu.fetch.cacheLines                   4930051                       # Number of cache lines fetched (Count)
system.cpu.fetch.icacheSquashes                 29414                       # Number of outstanding Icache misses that were squashed (Count)
system.cpu.fetch.nisnDist::samples           48479840                       # Number of instructions fetched each cycle (Total) (Count)
system.cpu.fetch.nisnDist::mean              0.918473                       # Number of instructions fetched each cycle (Total) (Count)
system.cpu.fetch.nisnDist::stdev             2.318970                       # Number of instructions fetched each cycle (Total) (Count)
system.cpu.fetch.nisnDist::underflows               0      0.00%      0.00% # Number of instructions fetched each cycle (Total) (Count)
system.cpu.fetch.nisnDist::0                 40561470     83.67%     83.67% # Number of instructions fetched each cycle (Total) (Count)
system.cpu.fetch.nisnDist::1                   657811      1.36%     85.02% # Number of instructions fetched each cycle (Total) (Count)
system.cpu.fetch.nisnDist::2                   755763      1.56%     86.58% # Number of instructions fetched each cycle (Total) (Count)
system.cpu.fetch.nisnDist::3                   547542      1.13%     87.71% # Number of instructions fetched each cycle (Total) (Count)
system.cpu.fetch.nisnDist::4                  1041483      2.15%     89.86% # Number of instructions fetched each cycle (Total) (Count)
system.cpu.fetch.nisnDist::5                   242630      0.50%     90.36% # Number of instructions fetched each cycle (Total) (Count)
system.cpu.fetch.nisnDist::6                   957680      1.98%     92.34% # Number of instructions fetched each cycle (Total) (Count)
system.cpu.fetch.nisnDist::7                   133385      0.28%     92.61% # Number of instructions fetched each cycle (Total) (Count)
system.cpu.fetch.nisnDist::8                  3582076      7.39%    100.00% # Number of instructions fetched each cycle (Total) (Count)
system.cpu.fetch.nisnDist::overflows                0      0.00%    100.00% # Number of instructions fetched each cycle (Total) (Count)
system.cpu.fetch.nisnDist::min_value                0                       # Number of instructions fetched each cycle (Total) (Count)
system.cpu.fetch.nisnDist::max_value                8                       # Number of instructions fetched each cycle (Total) (Count)
system.cpu.fetch.nisnDist::total             48479840                       # Number of instructions fetched each cycle (Total) (Count)
system.cpu.fetch.branchRate                  0.077275                       # Number of branch fetches per cycle (Ratio)
system.cpu.fetch.rate                        0.890575                       # Number of inst fetches per cycle ((Count/Cycle))
system.cpu.icache.demandHits::cpu.inst        4928797                       # number of demand (read+write) hits (Count)
system.cpu.icache.demandHits::total           4928797                       # number of demand (read+write) hits (Count)
system.cpu.icache.overallHits::cpu.inst       4928797                       # number of overall hits (Count)
system.cpu.icache.overallHits::total          4928797                       # number of overall hits (Count)
system.cpu.icache.demandMisses::cpu.inst         1253                       # number of demand (read+write) misses (Count)
system.cpu.icache.demandMisses::total            1253                       # number of demand (read+write) misses (Count)
system.cpu.icache.overallMisses::cpu.inst         1253                       # number of overall misses (Count)
system.cpu.icache.overallMisses::total           1253                       # number of overall misses (Count)
system.cpu.icache.demandMissLatency::cpu.inst     76214999                       # number of demand (read+write) miss ticks (Tick)
system.cpu.icache.demandMissLatency::total     76214999                       # number of demand (read+write) miss ticks (Tick)
system.cpu.icache.overallMissLatency::cpu.inst     76214999                       # number of overall miss ticks (Tick)
system.cpu.icache.overallMissLatency::total     76214999                       # number of overall miss ticks (Tick)
system.cpu.icache.demandAccesses::cpu.inst      4930050                       # number of demand (read+write) accesses (Count)
system.cpu.icache.demandAccesses::total       4930050                       # number of demand (read+write) accesses (Count)
system.cpu.icache.overallAccesses::cpu.inst      4930050                       # number of overall (read+write) accesses (Count)
system.cpu.icache.overallAccesses::total      4930050                       # number of overall (read+write) accesses (Count)
system.cpu.icache.demandMissRate::cpu.inst     0.000254                       # miss rate for demand accesses (Ratio)
system.cpu.icache.demandMissRate::total      0.000254                       # miss rate for demand accesses (Ratio)
system.cpu.icache.overallMissRate::cpu.inst     0.000254                       # miss rate for overall accesses (Ratio)
system.cpu.icache.overallMissRate::total     0.000254                       # miss rate for overall accesses (Ratio)
system.cpu.icache.demandAvgMissLatency::cpu.inst 60826.016760                       # average overall miss latency ((Cycle/Count))
system.cpu.icache.demandAvgMissLatency::total 60826.016760                       # average overall miss latency ((Cycle/Count))
system.cpu.icache.overallAvgMissLatency::cpu.inst 60826.016760                       # average overall miss latency ((Cycle/Count))
system.cpu.icache.overallAvgMissLatency::total 60826.016760                       # average overall miss latency ((Cycle/Count))
system.cpu.icache.blockedCycles::no_mshrs          447                       # number of cycles access was blocked (Cycle)
system.cpu.icache.blockedCycles::no_targets            0                       # number of cycles access was blocked (Cycle)
system.cpu.icache.blockedCauses::no_mshrs           10                       # number of times access was blocked (Count)
system.cpu.icache.blockedCauses::no_targets            0                       # number of times access was blocked (Count)
system.cpu.icache.avgBlocked::no_mshrs      44.700000                       # average number of cycles each access was blocked ((Cycle/Count))
system.cpu.icache.avgBlocked::no_targets          nan                       # average number of cycles each access was blocked ((Cycle/Count))
system.cpu.icache.writebacks::writebacks          514                       # number of writebacks (Count)
system.cpu.icache.writebacks::total               514                       # number of writebacks (Count)
system.cpu.icache.demandMshrHits::cpu.inst          259                       # number of demand (read+write) MSHR hits (Count)
system.cpu.icache.demandMshrHits::total           259                       # number of demand (read+write) MSHR hits (Count)
system.cpu.icache.overallMshrHits::cpu.inst          259                       # number of overall MSHR hits (Count)
system.cpu.icache.overallMshrHits::total          259                       # number of overall MSHR hits (Count)
system.cpu.icache.demandMshrMisses::cpu.inst          994                       # number of demand (read+write) MSHR misses (Count)
system.cpu.icache.demandMshrMisses::total          994                       # number of demand (read+write) MSHR misses (Count)
system.cpu.icache.overallMshrMisses::cpu.inst          994                       # number of overall MSHR misses (Count)
system.cpu.icache.overallMshrMisses::total          994                       # number of overall MSHR misses (Count)
system.cpu.icache.demandMshrMissLatency::cpu.inst     62545999                       # number of demand (read+write) MSHR miss ticks (Tick)
system.cpu.icache.demandMshrMissLatency::total     62545999                       # number of demand (read+write) MSHR miss ticks (Tick)
system.cpu.icache.overallMshrMissLatency::cpu.inst     62545999                       # number of overall MSHR miss ticks (Tick)
system.cpu.icache.overallMshrMissLatency::total     62545999                       # number of overall MSHR miss ticks (Tick)
system.cpu.icache.demandMshrMissRate::cpu.inst     0.000202                       # mshr miss ratio for demand accesses (Ratio)
system.cpu.icache.demandMshrMissRate::total     0.000202                       # mshr miss ratio for demand accesses (Ratio)
system.cpu.icache.overallMshrMissRate::cpu.inst     0.000202                       # mshr miss ratio for overall accesses (Ratio)
system.cpu.icache.overallMshrMissRate::total     0.000202                       # mshr miss ratio for overall accesses (Ratio)
system.cpu.icache.demandAvgMshrMissLatency::cpu.inst 62923.540241                       # average overall mshr miss latency ((Cycle/Count))
system.cpu.icache.demandAvgMshrMissLatency::total 62923.540241                       # average overall mshr miss latency ((Cycle/Count))
system.cpu.icache.overallAvgMshrMissLatency::cpu.inst 62923.540241                       # average overall mshr miss latency ((Cycle/Count))
system.cpu.icache.overallAvgMshrMissLatency::total 62923.540241                       # average overall mshr miss latency ((Cycle/Count))
system.cpu.icache.replacements                    514                       # number of replacements (Count)
system.cpu.icache.ReadReq.hits::cpu.inst      4928797                       # number of ReadReq hits (Count)
system.cpu.icache.ReadReq.hits::total         4928797                       # number of ReadReq hits (Count)
system.cpu.icache.ReadReq.misses::cpu.inst         1253                       # number of ReadReq misses (Count)
system.cpu.icache.ReadReq.misses::total          1253                       # number of ReadReq misses (Count)
system.cpu.icache.ReadReq.missLatency::cpu.inst     76214999                       # number of ReadReq miss ticks (Tick)
system.cpu.icache.ReadReq.missLatency::total     76214999                       # number of ReadReq miss ticks (Tick)
system.cpu.icache.ReadReq.accesses::cpu.inst      4930050                       # number of ReadReq accesses(hits+misses) (Count)
system.cpu.icache.ReadReq.accesses::total      4930050                       # number of ReadReq accesses(hits+misses) (Count)
system.cpu.icache.ReadReq.missRate::cpu.inst     0.000254                       # miss rate for ReadReq accesses (Ratio)
system.cpu.icache.ReadReq.missRate::total     0.000254                       # miss rate for ReadReq accesses (Ratio)
system.cpu.icache.ReadReq.avgMissLatency::cpu.inst 60826.016760                       # average ReadReq miss latency ((Tick/Count))
system.cpu.icache.ReadReq.avgMissLatency::total 60826.016760                       # average ReadReq miss latency ((Tick/Count))
system.cpu.icache.ReadReq.mshrHits::cpu.inst          259                       # number of ReadReq MSHR hits (Count)
system.cpu.icache.ReadReq.mshrHits::total          259                       # number of ReadReq MSHR hits (Count)
system.cpu.icache.ReadReq.mshrMisses::cpu.inst          994                       # number of ReadReq MSHR misses (Count)
system.cpu.icache.ReadReq.mshrMisses::total          994                       # number of ReadReq MSHR misses (Count)
system.cpu.icache.ReadReq.mshrMissLatency::cpu.inst     62545999                       # number of ReadReq MSHR miss ticks (Tick)
system.cpu.icache.ReadReq.mshrMissLatency::total     62545999                       # number of ReadReq MSHR miss ticks (Tick)
system.cpu.icache.ReadReq.mshrMissRate::cpu.inst     0.000202                       # mshr miss rate for ReadReq accesses (Ratio)
system.cpu.icache.ReadReq.mshrMissRate::total     0.000202                       # mshr miss rate for ReadReq accesses (Ratio)
system.cpu.icache.ReadReq.avgMshrMissLatency::cpu.inst 62923.540241                       # average ReadReq mshr miss latency ((Tick/Count))
system.cpu.icache.ReadReq.avgMshrMissLatency::total 62923.540241                       # average ReadReq mshr miss latency ((Tick/Count))
system.cpu.icache.power_state.pwrStateResidencyTicks::UNDEFINED  24266631000                       # Cumulative time (in ticks) in various power states (Tick)
system.cpu.icache.tags.tagsInUse           408.348242                       # Average ticks per tags in use ((Tick/Count))
system.cpu.icache.tags.totalRefs              4929791                       # Total number of references to valid blocks. (Count)
system.cpu.icache.tags.sampledRefs                994                       # Sample count of references to valid blocks. (Count)
system.cpu.icache.tags.avgRefs            4959.548290                       # Average number of references to valid blocks. ((Count/Count))
system.cpu.icache.tags.warmupTick               77000                       # The tick when the warmup percentage was hit. (Tick)
system.cpu.icache.tags.occupancies::cpu.inst   408.348242                       # Average occupied blocks per tick, per requestor ((Count/Tick))
system.cpu.icache.tags.avgOccs::cpu.inst     0.797555                       # Average percentage of cache occupancy ((Ratio/Tick))
system.cpu.icache.tags.avgOccs::total        0.797555                       # Average percentage of cache occupancy ((Ratio/Tick))
system.cpu.icache.tags.occupanciesTaskId::1024          480                       # Occupied blocks per task id (Count)
system.cpu.icache.tags.ageTaskId_1024::0          143                       # Occupied blocks per task id, per block age (Count)
system.cpu.icache.tags.ageTaskId_1024::1           52                       # Occupied blocks per task id, per block age (Count)
system.cpu.icache.tags.ageTaskId_1024::2           76                       # Occupied blocks per task id, per block age (Count)
system.cpu.icache.tags.ageTaskId_1024::4          209                       # Occupied blocks per task id, per block age (Count)
system.cpu.icache.tags.ratioOccsTaskId::1024     0.937500                       # Ratio of occupied blocks and all blocks, per task id (Ratio)
system.cpu.icache.tags.tagAccesses            9861094                       # Number of tag accesses (Count)
system.cpu.icache.tags.dataAccesses           9861094                       # Number of data accesses (Count)
system.cpu.icache.tags.power_state.pwrStateResidencyTicks::UNDEFINED  24266631000                       # Cumulative time (in ticks) in various power states (Tick)
system.cpu.iew.idleCycles                           0                       # Number of cycles IEW is idle (Cycle)
system.cpu.iew.squashCycles                     75290                       # Number of cycles IEW is squashing (Cycle)
[...]
system.mem_ctrls.dram.bwRead::cpu.inst        2621542                       # Total read bandwidth from this memory ((Byte/Second))
system.mem_ctrls.dram.bwRead::cpu.data     2003340966                       # Total read bandwidth from this memory ((Byte/Second))
system.mem_ctrls.dram.bwRead::total        2005962509                       # Total read bandwidth from this memory ((Byte/Second))
system.mem_ctrls.dram.bwInstRead::cpu.inst      2621542                       # Instruction read bandwidth from this memory ((Byte/Second))
system.mem_ctrls.dram.bwInstRead::total       2621542                       # Instruction read bandwidth from this memory ((Byte/Second))
system.mem_ctrls.dram.bwWrite::writebacks    204010849                       # Write bandwidth from this memory ((Byte/Second))
system.mem_ctrls.dram.bwWrite::total        204010849                       # Write bandwidth from this memory ((Byte/Second))
system.mem_ctrls.dram.bwTotal::writebacks    204010849                       # Total bandwidth to/from this memory ((Byte/Second))
system.mem_ctrls.dram.bwTotal::cpu.inst       2621542                       # Total bandwidth to/from this memory ((Byte/Second))
system.mem_ctrls.dram.bwTotal::cpu.data    2003340966                       # Total bandwidth to/from this memory ((Byte/Second))
system.mem_ctrls.dram.bwTotal::total       2209973358                       # Total bandwidth to/from this memory ((Byte/Second))
system.mem_ctrls.dram.readBursts               678002                       # Number of DRAM read bursts (Count)
system.mem_ctrls.dram.writeBursts                9114                       # Number of DRAM write bursts (Count)
system.mem_ctrls.dram.perBankRdBursts::0        16767                       # Per bank write bursts (Count)
system.mem_ctrls.dram.perBankRdBursts::1        13181                       # Per bank write bursts (Count)
system.mem_ctrls.dram.perBankRdBursts::2         1620                       # Per bank write bursts (Count)
system.mem_ctrls.dram.perBankRdBursts::3         9761                       # Per bank write bursts (Count)
system.mem_ctrls.dram.perBankRdBursts::4        47373                       # Per bank write bursts (Count)
system.mem_ctrls.dram.perBankRdBursts::5       145317                       # Per bank write bursts (Count)
system.mem_ctrls.dram.perBankRdBursts::6       145193                       # Per bank write bursts (Count)
system.mem_ctrls.dram.perBankRdBursts::7       145167                       # Per bank write bursts (Count)
system.mem_ctrls.dram.perBankRdBursts::8       104652                       # Per bank write bursts (Count)
system.mem_ctrls.dram.perBankRdBursts::9         4724                       # Per bank write bursts (Count)
system.mem_ctrls.dram.perBankRdBursts::10         5141                       # Per bank write bursts (Count)
system.mem_ctrls.dram.perBankRdBursts::11         3662                       # Per bank write bursts (Count)
system.mem_ctrls.dram.perBankRdBursts::12        12346                       # Per bank write bursts (Count)
system.mem_ctrls.dram.perBankRdBursts::13        13574                       # Per bank write bursts (Count)
system.mem_ctrls.dram.perBankRdBursts::14          719                       # Per bank write bursts (Count)
system.mem_ctrls.dram.perBankRdBursts::15         8805                       # Per bank write bursts (Count)
system.mem_ctrls.dram.perBankWrBursts::0          343                       # Per bank write bursts (Count)
system.mem_ctrls.dram.perBankWrBursts::1          391                       # Per bank write bursts (Count)
system.mem_ctrls.dram.perBankWrBursts::2         1897                       # Per bank write bursts (Count)
system.mem_ctrls.dram.perBankWrBursts::3          338                       # Per bank write bursts (Count)
system.mem_ctrls.dram.perBankWrBursts::4          551                       # Per bank write bursts (Count)
system.mem_ctrls.dram.perBankWrBursts::5          585                       # Per bank write bursts (Count)
system.mem_ctrls.dram.perBankWrBursts::6          606                       # Per bank write bursts (Count)
system.mem_ctrls.dram.perBankWrBursts::7          599                       # Per bank write bursts (Count)
system.mem_ctrls.dram.perBankWrBursts::8          530                       # Per bank write bursts (Count)
system.mem_ctrls.dram.perBankWrBursts::9          547                       # Per bank write bursts (Count)
system.mem_ctrls.dram.perBankWrBursts::10          532                       # Per bank write bursts (Count)
system.mem_ctrls.dram.perBankWrBursts::11          546                       # Per bank write bursts (Count)
system.mem_ctrls.dram.perBankWrBursts::12          463                       # Per bank write bursts (Count)
system.mem_ctrls.dram.perBankWrBursts::13          390                       # Per bank write bursts (Count)
system.mem_ctrls.dram.perBankWrBursts::14          408                       # Per bank write bursts (Count)
system.mem_ctrls.dram.perBankWrBursts::15          388                       # Per bank write bursts (Count)
system.mem_ctrls.dram.totQLat              2869085250                       # Total ticks spent queuing (Tick)
system.mem_ctrls.dram.totBusLat            3390010000                       # Total ticks spent in databus transfers (Tick)
system.mem_ctrls.dram.totMemAccLat        15581622750                       # Total ticks spent from burst creation until serviced by the DRAM (Tick)
system.mem_ctrls.dram.avgQLat                 4231.68                       # Average queueing delay per DRAM burst ((Tick/Count))
system.mem_ctrls.dram.avgBusLat               5000.00                       # Average bus latency per DRAM burst ((Tick/Count))
system.mem_ctrls.dram.avgMemAccLat           22981.68                       # Average memory access latency per DRAM burst ((Tick/Count))
system.mem_ctrls.dram.readRowHits              621187                       # Number of row buffer hits during reads (Count)
system.mem_ctrls.dram.writeRowHits               8256                       # Number of row buffer hits during writes (Count)
system.mem_ctrls.dram.readRowHitRate            91.62                       # Row buffer hit rate for reads (Ratio)
system.mem_ctrls.dram.writeRowHitRate           90.59                       # Row buffer hit rate for writes (Ratio)
system.mem_ctrls.dram.bytesPerActivate::samples        57658                       # Bytes accessed per row activation (Byte)
system.mem_ctrls.dram.bytesPerActivate::mean   762.624302                       # Bytes accessed per row activation (Byte)
system.mem_ctrls.dram.bytesPerActivate::gmean   573.594635                       # Bytes accessed per row activation (Byte)
system.mem_ctrls.dram.bytesPerActivate::stdev   374.613548                       # Bytes accessed per row activation (Byte)
system.mem_ctrls.dram.bytesPerActivate::0-127         6339     10.99%     10.99% # Bytes accessed per row activation (Byte)
system.mem_ctrls.dram.bytesPerActivate::128-255         3807      6.60%     17.60% # Bytes accessed per row activation (Byte)
system.mem_ctrls.dram.bytesPerActivate::256-383         3694      6.41%     24.00% # Bytes accessed per row activation (Byte)
system.mem_ctrls.dram.bytesPerActivate::384-511         1559      2.70%     26.71% # Bytes accessed per row activation (Byte)
system.mem_ctrls.dram.bytesPerActivate::512-639         1455      2.52%     29.23% # Bytes accessed per row activation (Byte)
system.mem_ctrls.dram.bytesPerActivate::640-767         1161      2.01%     31.24% # Bytes accessed per row activation (Byte)
system.mem_ctrls.dram.bytesPerActivate::768-895         2764      4.79%     36.04% # Bytes accessed per row activation (Byte)
system.mem_ctrls.dram.bytesPerActivate::896-1023         2043      3.54%     39.58% # Bytes accessed per row activation (Byte)
system.mem_ctrls.dram.bytesPerActivate::1024-1151        34836     60.42%    100.00% # Bytes accessed per row activation (Byte)
system.mem_ctrls.dram.bytesPerActivate::total        57658                       # Bytes accessed per row activation (Byte)
system.mem_ctrls.dram.bytesRead              43392128                       # Total bytes read (Byte)
system.mem_ctrls.dram.bytesWritten             583296                       # Total bytes written (Byte)
system.mem_ctrls.dram.avgRdBW             1788.139771                       # Average DRAM read bandwidth in MiBytes/s ((Byte/Second))
system.mem_ctrls.dram.avgWrBW               24.036958                       # Average DRAM write bandwidth in MiBytes/s ((Byte/Second))
system.mem_ctrls.dram.peakBW                 12800.00                       # Theoretical peak bandwidth in MiByte/s ((Byte/Second))
system.mem_ctrls.dram.busUtil                   14.16                       # Data bus utilization in percentage (Ratio)
system.mem_ctrls.dram.busUtilRead               13.97                       # Data bus utilization in percentage for reads (Ratio)
system.mem_ctrls.dram.busUtilWrite               0.19                       # Data bus utilization in percentage for writes (Ratio)
system.mem_ctrls.dram.pageHitRate               91.61                       # Row buffer hit rate, read and write combined (Ratio)
system.mem_ctrls.dram.power_state.pwrStateResidencyTicks::UNDEFINED  24266631000                       # Cumulative time (in ticks) in various power states (Tick)
system.mem_ctrls.dram.rank0.actEnergy       301400820                       # Energy for activate commands per rank (pJ) (Joule)
system.mem_ctrls.dram.rank0.preEnergy       160171770                       # Energy for precharge commands per rank (pJ) (Joule)
system.mem_ctrls.dram.rank0.readEnergy     3744066060                       # Energy for read commands per rank (pJ) (Joule)
system.mem_ctrls.dram.rank0.writeEnergy      27718200                       # Energy for write commands per rank (pJ) (Joule)
system.mem_ctrls.dram.rank0.refreshEnergy 1915218240.000000                       # Energy for refresh commands per rank (pJ) (Joule)
system.mem_ctrls.dram.rank0.actBackEnergy  10879693170                       # Energy for active background per rank (pJ) (Joule)
system.mem_ctrls.dram.rank0.preBackEnergy    156539520                       # Energy for precharge background per rank (pJ) (Joule)
system.mem_ctrls.dram.rank0.actPowerDownEnergy            0                       # Energy for active power-down per rank (pJ) (Joule)
system.mem_ctrls.dram.rank0.prePowerDownEnergy            0                       # Energy for precharge power-down per rank (pJ) (Joule)
system.mem_ctrls.dram.rank0.selfRefreshEnergy            0                       # Energy for self refresh per rank (pJ) (Joule)
system.mem_ctrls.dram.rank0.totalEnergy   17184807780                       # Total energy per rank (pJ) (Joule)
system.mem_ctrls.dram.rank0.averagePower   708.166197                       # Core power per rank (mW) (Watt)
system.mem_ctrls.dram.rank0.totalIdleTime            0                       # Total Idle time Per DRAM Rank (Tick)
system.mem_ctrls.dram.rank0.pwrStateTime::IDLE    307507000                       # Time in different power states (Tick)
system.mem_ctrls.dram.rank0.pwrStateTime::REF    810160000                       # Time in different power states (Tick)
system.mem_ctrls.dram.rank0.pwrStateTime::SREF            0                       # Time in different power states (Tick)
system.mem_ctrls.dram.rank0.pwrStateTime::PRE_PDN            0                       # Time in different power states (Tick)
system.mem_ctrls.dram.rank0.pwrStateTime::ACT  23148964000                       # Time in different power states (Tick)
system.mem_ctrls.dram.rank0.pwrStateTime::ACT_PDN            0                       # Time in different power states (Tick)
system.mem_ctrls.dram.rank1.actEnergy       110384400                       # Energy for activate commands per rank (pJ) (Joule)
system.mem_ctrls.dram.rank1.preEnergy        58640340                       # Energy for precharge commands per rank (pJ) (Joule)
system.mem_ctrls.dram.rank1.readEnergy     1096868220                       # Energy for read commands per rank (pJ) (Joule)
system.mem_ctrls.dram.rank1.writeEnergy      19856880                       # Energy for write commands per rank (pJ) (Joule)
system.mem_ctrls.dram.rank1.refreshEnergy 1915218240.000000                       # Energy for refresh commands per rank (pJ) (Joule)
system.mem_ctrls.dram.rank1.actBackEnergy  10229489610                       # Energy for active background per rank (pJ) (Joule)
system.mem_ctrls.dram.rank1.preBackEnergy    704079360                       # Energy for precharge background per rank (pJ) (Joule)
system.mem_ctrls.dram.rank1.actPowerDownEnergy            0                       # Energy for active power-down per rank (pJ) (Joule)
system.mem_ctrls.dram.rank1.prePowerDownEnergy            0                       # Energy for precharge power-down per rank (pJ) (Joule)
system.mem_ctrls.dram.rank1.selfRefreshEnergy            0                       # Energy for self refresh per rank (pJ) (Joule)
system.mem_ctrls.dram.rank1.totalEnergy   14134537050                       # Total energy per rank (pJ) (Joule)
system.mem_ctrls.dram.rank1.averagePower   582.468042                       # Core power per rank (mW) (Watt)
system.mem_ctrls.dram.rank1.totalIdleTime            0                       # Total Idle time Per DRAM Rank (Tick)
system.mem_ctrls.dram.rank1.pwrStateTime::IDLE   1736198250                       # Time in different power states (Tick)
system.mem_ctrls.dram.rank1.pwrStateTime::REF    810160000                       # Time in different power states (Tick)
system.mem_ctrls.dram.rank1.pwrStateTime::SREF            0                       # Time in different power states (Tick)
system.mem_ctrls.dram.rank1.pwrStateTime::PRE_PDN            0                       # Time in different power states (Tick)
system.mem_ctrls.dram.rank1.pwrStateTime::ACT  21720272750                       # Time in different power states (Tick)
system.mem_ctrls.dram.rank1.pwrStateTime::ACT_PDN            0                       # Time in different power states (Tick)
system.mem_ctrls.power_state.pwrStateResidencyTicks::UNDEFINED  24266631000                       # Cumulative time (in ticks) in various power states (Tick)
system.membus.transDist::ReadResp              711884                       # Transaction distribution (Count)
system.membus.transDist::WritebackDirty         77354                       # Transaction distribution (Count)
system.membus.transDist::WritebackClean           514                       # Transaction distribution (Count)
system.membus.transDist::CleanEvict            692258                       # Transaction distribution (Count)
system.membus.transDist::ReadExReq              48709                       # Transaction distribution (Count)
system.membus.transDist::ReadExResp             48709                       # Transaction distribution (Count)
system.membus.transDist::ReadCleanReq             994                       # Transaction distribution (Count)
system.membus.transDist::ReadSharedReq         710890                       # Transaction distribution (Count)
system.membus.transDist::InvalidateReq          10045                       # Transaction distribution (Count)
system.membus.pktCount_system.cpu.icache.mem_side_port::system.mem_ctrls.port         2502                       # Packet count per connected requestor and responder (Count)
system.membus.pktCount_system.cpu.dcache.mem_side_port::system.mem_ctrls.port      2298855                       # Packet count per connected requestor and responder (Count)
system.membus.pktCount::total                 2301357                       # Packet count per connected requestor and responder (Count)
system.membus.pktSize_system.cpu.icache.mem_side_port::system.mem_ctrls.port        96512                       # Cumulative packet size per connected requestor and responder (Byte)
system.membus.pktSize_system.cpu.dcache.mem_side_port::system.mem_ctrls.port     53564992                       # Cumulative packet size per connected requestor and responder (Byte)
system.membus.pktSize::total                 53661504                       # Cumulative packet size per connected requestor and responder (Byte)
system.membus.snoops                                0                       # Total snoops (Count)
system.membus.snoopTraffic                          0                       # Total snoop traffic (Byte)
system.membus.snoopFanout::samples             770638                       # Request fanout histogram (Count)
system.membus.snoopFanout::mean              0.000004                       # Request fanout histogram (Count)
system.membus.snoopFanout::stdev             0.001973                       # Request fanout histogram (Count)
system.membus.snoopFanout::underflows               0      0.00%      0.00% # Request fanout histogram (Count)
system.membus.snoopFanout::0                   770635    100.00%    100.00% # Request fanout histogram (Count)
system.membus.snoopFanout::1                        3      0.00%    100.00% # Request fanout histogram (Count)
system.membus.snoopFanout::2                        0      0.00%    100.00% # Request fanout histogram (Count)
system.membus.snoopFanout::overflows                0      0.00%    100.00% # Request fanout histogram (Count)
system.membus.snoopFanout::min_value                0                       # Request fanout histogram (Count)
system.membus.snoopFanout::max_value                1                       # Request fanout histogram (Count)
system.membus.snoopFanout::total               770638                       # Request fanout histogram (Count)
system.membus.power_state.pwrStateResidencyTicks::UNDEFINED  24266631000                       # Cumulative time (in ticks) in various power states (Tick)
system.membus.reqLayer0.occupancy          2103027000                       # Layer occupancy (ticks) (Tick)
system.membus.reqLayer0.utilization               0.1                       # Layer utilization (Ratio)
system.membus.respLayer1.occupancy            5291999                       # Layer occupancy (ticks) (Tick)
system.membus.respLayer1.utilization              0.0                       # Layer utilization (Ratio)
system.membus.respLayer2.occupancy         3974349500                       # Layer occupancy (ticks) (Tick)
system.membus.respLayer2.utilization              0.2                       # Layer utilization (Ratio)
system.membus.snoop_filter.totRequests        1540769                       # Total number of requests made to the snoop filter. (Count)
system.membus.snoop_filter.hitSingleRequests       770131                       # Number of requests hitting in the snoop filter with a single holder of the requested data. (Count)
system.membus.snoop_filter.hitMultiRequests            3                       # Number of requests hitting in the snoop filter with multiple (>1) holders of the requested data. (Count)
system.membus.snoop_filter.totSnoops                0                       # Total number of snoops made to the snoop filter. (Count)
system.membus.snoop_filter.hitSingleSnoops            0                       # Number of snoops hitting in the snoop filter with a single holder of the requested data. (Count)
system.membus.snoop_filter.hitMultiSnoops            0                       # Number of snoops hitting in the snoop filter with multiple (>1) holders of the requested data. (Count)
system.voltage_domain.voltage                       1                       # Voltage in Volts (Volt)
system.workload.inst.arm                            0                       # number of arm instructions executed (Count)
system.workload.inst.quiesce                        0                       # number of quiesce instructions executed (Count)

---------- End Simulation Statistics   ----------
