
---------- Begin Simulation Statistics ----------
simSeconds                                   0.004888                       # Number of seconds simulated (Second)
simTicks                                   4887922500                       # Number of ticks simulated (Tick)
finalTick                                  4887922500                       # Number of ticks from beginning of simulation (restored from checkpoints and never reset) (Tick)
simFreq                                  1000000000000                       # The number of ticks per simulated second ((Tick/Second))
hostSeconds                                     19.72                       # Real time elapsed on the host (Second)
hostTickRate                                247831045                       # The number of ticks simulated per host second (ticks/s) ((Tick/Second))
hostMemory                                     640012                       # Number of bytes of host memory used (Byte)
simInsts                                     18129095                       # Number of instructions simulated (Count)
simOps                                       18129110                       # Number of ops (including micro ops) simulated (Count)
hostInstRate                                   919193                       # Simulator instruction rate (inst/s) ((Count/Second))
hostOpRate                                     919193                       # Simulator op (including micro ops) rate (op/s) ((Count/Second))
system.clk_domain.clock                          1000                       # Clock period in ticks (Tick)
system.cpu.numCycles                          9775846                       # Number of cpu cycles simulated (Cycle)
system.cpu.numWorkItemsStarted                      0                       # Number of work items this cpu started (Count)
system.cpu.numWorkItemsCompleted                    0                       # Number of work items this cpu completed (Count)
system.cpu.instsAdded                        20279736                       # Number of instructions added to the IQ (excludes non-spec) (Count)
system.cpu.nonSpecInstsAdded                     8781                       # Number of non-speculative instructions added to the IQ (Count)
system.cpu.instsIssued                       19762275                       # Number of instructions issued (Count)
system.cpu.squashedInstsIssued                  13651                       # Number of squashed instructions issued (Count)
system.cpu.squashedInstsExamined              2159406                       # Number of squashed instructions iterated over during squash; mainly for profiling (Count)
system.cpu.squashedOperandsExamined           1011144                       # Number of squashed operands that are examined and possibly removed from graph (Count)
system.cpu.squashedNonSpecRemoved                 311                       # Number of squashed non-spec instructions that were removed (Count)
system.cpu.numIssuedDist::samples             9741004                       # Number of insts issued each cycle (Count)
system.cpu.numIssuedDist::mean               2.028772                       # Number of insts issued each cycle (Count)
system.cpu.numIssuedDist::stdev              1.967719                       # Number of insts issued each cycle (Count)
system.cpu.numIssuedDist::underflows                0      0.00%      0.00% # Number of insts issued each cycle (Count)
system.cpu.numIssuedDist::0                   2545085     26.13%     26.13% # Number of insts issued each cycle (Count)
system.cpu.numIssuedDist::1                   2408927     24.73%     50.86% # Number of insts issued each cycle (Count)
system.cpu.numIssuedDist::2                   1760511     18.07%     68.93% # Number of insts issued each cycle (Count)
system.cpu.numIssuedDist::3                    750882      7.71%     76.64% # Number of insts issued each cycle (Count)
system.cpu.numIssuedDist::4                    751514      7.71%     84.35% # Number of insts issued each cycle (Count)
system.cpu.numIssuedDist::5                    956756      9.82%     94.18% # Number of insts issued each cycle (Count)
system.cpu.numIssuedDist::6                    290125      2.98%     97.15% # Number of insts issued each cycle (Count)
system.cpu.numIssuedDist::7                    168538      1.73%     98.88% # Number of insts issued each cycle (Count)
system.cpu.numIssuedDist::8                    108666      1.12%    100.00% # Number of insts issued each cycle (Count)
system.cpu.numIssuedDist::overflows                 0      0.00%    100.00% # Number of insts issued each cycle (Count)
system.cpu.numIssuedDist::min_value                 0                       # Number of insts issued each cycle (Count)
system.cpu.numIssuedDist::max_value                 8                       # Number of insts issued each cycle (Count)
system.cpu.numIssuedDist::total               9741004                       # Number of insts issued each cycle (Count)
system.cpu.statFuBusy::No_OpClass                   0      0.00%      0.00% # attempts to use FU when none available (Count)
system.cpu.statFuBusy::IntAlu                  138780     34.81%     34.81% # attempts to use FU when none available (Count)
system.cpu.statFuBusy::IntMult                   2478      0.62%     35.43% # attempts to use FU when none available (Count)
system.cpu.statFuBusy::IntDiv                   16533      4.15%     39.58% # attempts to use FU when none available (Count)
system.cpu.statFuBusy::FloatAdd                 10527      2.64%     42.22% # attempts to use FU when none available (Count)
system.cpu.statFuBusy::FloatCmp                   271      0.07%     42.29% # attempts to use FU when none available (Count)
system.cpu.statFuBusy::FloatCvt                     0      0.00%     42.29% # attempts to use FU when none available (Count)
system.cpu.statFuBusy::FloatMult                    0      0.00%     42.29% # attempts to use FU when none available (Count)
system.cpu.statFuBusy::FloatMultAcc                 0      0.00%     42.29% # attempts to use FU when none available (Count)
system.cpu.statFuBusy::FloatDiv                     0      0.00%     42.29% # attempts to use FU when none available (Count)
system.cpu.statFuBusy::FloatMisc                    1      0.00%     42.29% # attempts to use FU when none available (Count)
system.cpu.statFuBusy::FloatSqrt                    0      0.00%     42.29% # attempts to use FU when none available (Count)
system.cpu.statFuBusy::SimdAdd                      0      0.00%     42.29% # attempts to use FU when none available (Count)
system.cpu.statFuBusy::SimdAddAcc                   0      0.00%     42.29% # attempts to use FU when none available (Count)
system.cpu.statFuBusy::SimdAlu                      0      0.00%     42.29% # attempts to use FU when none available (Count)
system.cpu.statFuBusy::SimdCmp                      0      0.00%     42.29% # attempts to use FU when none available (Count)
system.cpu.statFuBusy::SimdCvt                      0      0.00%     42.29% # attempts to use FU when none available (Count)
system.cpu.statFuBusy::SimdMisc                     0      0.00%     42.29% # attempts to use FU when none available (Count)
system.cpu.statFuBusy::SimdMult                     0      0.00%     42.29% # attempts to use FU when none available (Count)
system.cpu.statFuBusy::SimdMultAcc                  0      0.00%     42.29% # attempts to use FU when none available (Count)
system.cpu.statFuBusy::SimdShift                    0      0.00%     42.29% # attempts to use FU when none available (Count)
system.cpu.statFuBusy::SimdShiftAcc                 0      0.00%     42.29% # attempts to use FU when none available (Count)
system.cpu.statFuBusy::SimdDiv                      0      0.00%     42.29% # attempts to use FU when none available (Count)
system.cpu.statFuBusy::SimdSqrt                     0      0.00%     42.29% # attempts to use FU when none available (Count)
system.cpu.statFuBusy::SimdFloatAdd                 0      0.00%     42.29% # attempts to use FU when none available (Count)
system.cpu.statFuBusy::SimdFloatAlu                 0      0.00%     42.29% # attempts to use FU when none available (Count)
system.cpu.statFuBusy::SimdFloatCmp                 0      0.00%     42.29% # attempts to use FU when none available (Count)
system.cpu.statFuBusy::SimdFloatCvt                 0      0.00%     42.29% # attempts to use FU when none available (Count)
system.cpu.statFuBusy::SimdFloatDiv                 0      0.00%     42.29% # attempts to use FU when none available (Count)
system.cpu.statFuBusy::SimdFloatMisc                0      0.00%     42.29% # attempts to use FU when none available (Count)
system.cpu.statFuBusy::SimdFloatMult                0      0.00%     42.29% # attempts to use FU when none available (Count)
system.cpu.statFuBusy::SimdFloatMultAcc             0      0.00%     42.29% # attempts to use FU when none available (Count)
system.cpu.statFuBusy::SimdFloatSqrt                0      0.00%     42.29% # attempts to use FU when none available (Count)
system.cpu.statFuBusy::SimdReduceAdd                0      0.00%     42.29% # attempts to use FU when none available (Count)
system.cpu.statFuBusy::SimdReduceAlu                0      0.00%     42.29% # attempts to use FU when none available (Count)
system.cpu.statFuBusy::SimdReduceCmp                0      0.00%     42.29% # attempts to use FU when none available (Count)
system.cpu.statFuBusy::SimdFloatReduceAdd            0      0.00%     42.29% # attempts to use FU when none available (Count)
system.cpu.statFuBusy::SimdFloatReduceCmp            0      0.00%     42.29% # attempts to use FU when none available (Count)
system.cpu.statFuBusy::SimdAes                      0      0.00%     42.29% # attempts to use FU when none available (Count)
system.cpu.statFuBusy::SimdAesMix                   0      0.00%     42.29% # attempts to use FU when none available (Count)
system.cpu.statFuBusy::SimdSha1Hash                 0      0.00%     42.29% # attempts to use FU when none available (Count)
system.cpu.statFuBusy::SimdSha1Hash2                0      0.00%     42.29% # attempts to use FU when none available (Count)
system.cpu.statFuBusy::SimdSha256Hash               0      0.00%     42.29% # attempts to use FU when none available (Count)
system.cpu.statFuBusy::SimdSha256Hash2              0      0.00%     42.29% # attempts to use FU when none available (Count)
system.cpu.statFuBusy::SimdShaSigma2                0      0.00%     42.29% # attempts to use FU when none available (Count)
system.cpu.statFuBusy::SimdShaSigma3                0      0.00%     42.29% # attempts to use FU when none available (Count)
system.cpu.statFuBusy::SimdPredAlu                  0      0.00%     42.29% # attempts to use FU when none available (Count)
system.cpu.statFuBusy::MemRead                 113259     28.41%     70.70% # attempts to use FU when none available (Count)
system.cpu.statFuBusy::MemWrite                114823     28.80%     99.50% # attempts to use FU when none available (Count)
system.cpu.statFuBusy::FloatMemRead              1989      0.50%    100.00% # attempts to use FU when none available (Count)
system.cpu.statFuBusy::FloatMemWrite                6      0.00%    100.00% # attempts to use FU when none available (Count)
system.cpu.statFuBusy::IprAccess                    0      0.00%    100.00% # attempts to use FU when none available (Count)
system.cpu.statFuBusy::InstPrefetch                 0      0.00%    100.00% # attempts to use FU when none available (Count)
system.cpu.statIssuedInstType_0::No_OpClass         8452      0.04%      0.04% # Number of instructions issued per FU type, per thread (Count)
system.cpu.statIssuedInstType_0::IntAlu      13225718     66.92%     66.97% # Number of instructions issued per FU type, per thread (Count)
system.cpu.statIssuedInstType_0::IntMult        26957      0.14%     67.10% # Number of instructions issued per FU type, per thread (Count)
system.cpu.statIssuedInstType_0::IntDiv         42413      0.21%     67.32% # Number of instructions issued per FU type, per thread (Count)
system.cpu.statIssuedInstType_0::FloatAdd      1258927      6.37%     73.69% # Number of instructions issued per FU type, per thread (Count)
system.cpu.statIssuedInstType_0::FloatCmp       591131      2.99%     76.68% # Number of instructions issued per FU type, per thread (Count)
system.cpu.statIssuedInstType_0::FloatCvt         8256      0.04%     76.72% # Number of instructions issued per FU type, per thread (Count)
system.cpu.statIssuedInstType_0::FloatMult            0      0.00%     76.72% # Number of instructions issued per FU type, per thread (Count)
system.cpu.statIssuedInstType_0::FloatMultAcc            0      0.00%     76.72% # Number of instructions issued per FU type, per thread (Count)
system.cpu.statIssuedInstType_0::FloatDiv            0      0.00%     76.72% # Number of instructions issued per FU type, per thread (Count)
system.cpu.statIssuedInstType_0::FloatMisc        43903      0.22%     76.94% # Number of instructions issued per FU type, per thread (Count)
system.cpu.statIssuedInstType_0::FloatSqrt            0      0.00%     76.94% # Number of instructions issued per FU type, per thread (Count)
system.cpu.statIssuedInstType_0::SimdAdd            0      0.00%     76.94% # Number of instructions issued per FU type, per thread (Count)
system.cpu.statIssuedInstType_0::SimdAddAcc            0      0.00%     76.94% # Number of instructions issued per FU type, per thread (Count)
system.cpu.statIssuedInstType_0::SimdAlu            0      0.00%     76.94% # Number of instructions issued per FU type, per thread (Count)
system.cpu.statIssuedInstType_0::SimdCmp            0      0.00%     76.94% # Number of instructions issued per FU type, per thread (Count)
system.cpu.statIssuedInstType_0::SimdCvt            0      0.00%     76.94% # Number of instructions issued per FU type, per thread (Count)
system.cpu.statIssuedInstType_0::SimdMisc            0      0.00%     76.94% # Number of instructions issued per FU type, per thread (Count)
system.cpu.statIssuedInstType_0::SimdMult            0      0.00%     76.94% # Number of instructions issued per FU type, per thread (Count)
system.cpu.statIssuedInstType_0::SimdMultAcc            0      0.00%     76.94% # Number of instructions issued per FU type, per thread (Count)
system.cpu.statIssuedInstType_0::SimdShift            0      0.00%     76.94% # Number of instructions issued per FU type, per thread (Count)
system.cpu.statIssuedInstType_0::SimdShiftAcc            0      0.00%     76.94% # Number of instructions issued per FU type, per thread (Count)
system.cpu.statIssuedInstType_0::SimdDiv            0      0.00%     76.94% # Number of instructions issued per FU type, per thread (Count)
system.cpu.statIssuedInstType_0::SimdSqrt            0      0.00%     76.94% # Number of instructions issued per FU type, per thread (Count)
system.cpu.statIssuedInstType_0::SimdFloatAdd            0      0.00%     76.94% # Number of instructions issued per FU type, per thread (Count)
system.cpu.statIssuedInstType_0::SimdFloatAlu            0      0.00%     76.94% # Number of instructions issued per FU type, per thread (Count)
system.cpu.statIssuedInstType_0::SimdFloatCmp            0      0.00%     76.94% # Number of instructions issued per FU type, per thread (Count)
system.cpu.statIssuedInstType_0::SimdFloatCvt            0      0.00%     76.94% # Number of instructions issued per FU type, per thread (Count)
system.cpu.statIssuedInstType_0::SimdFloatDiv            0      0.00%     76.94% # Number of instructions issued per FU type, per thread (Count)
system.cpu.statIssuedInstType_0::SimdFloatMisc            0      0.00%     76.94% # Number of instructions issued per FU type, per thread (Count)
system.cpu.statIssuedInstType_0::SimdFloatMult            0      0.00%     76.94% # Number of instructions issued per FU type, per thread (Count)
system.cpu.statIssuedInstType_0::SimdFloatMultAcc            0      0.00%     76.94% # Number of instructions issued per FU type, per thread (Count)
system.cpu.statIssuedInstType_0::SimdFloatSqrt            0      0.00%     76.94% # Number of instructions issued per FU type, per thread (Count)
system.cpu.statIssuedInstType_0::SimdReduceAdd            0      0.00%     76.94% # Number of instructions issued per FU type, per thread (Count)
system.cpu.statIssuedInstType_0::SimdReduceAlu            0      0.00%     76.94% # Number of instructions issued per FU type, per thread (Count)
system.cpu.statIssuedInstType_0::SimdReduceCmp            0      0.00%     76.94% # Number of instructions issued per FU type, per thread (Count)
system.cpu.statIssuedInstType_0::SimdFloatReduceAdd            0      0.00%     76.94% # Number of instructions issued per FU type, per thread (Count)
system.cpu.statIssuedInstType_0::SimdFloatReduceCmp            0      0.00%     76.94% # Number of instructions issued per FU type, per thread (Count)
system.cpu.statIssuedInstType_0::SimdAes            0      0.00%     76.94% # Number of instructions issued per FU type, per thread (Count)
system.cpu.statIssuedInstType_0::SimdAesMix            0      0.00%     76.94% # Number of instructions issued per FU type, per thread (Count)
system.cpu.statIssuedInstType_0::SimdSha1Hash            0      0.00%     76.94% # Number of instructions issued per FU type, per thread (Count)
system.cpu.statIssuedInstType_0::SimdSha1Hash2            0      0.00%     76.94% # Number of instructions issued per FU type, per thread (Count)
system.cpu.statIssuedInstType_0::SimdSha256Hash            0      0.00%     76.94% # Number of instructions issued per FU type, per thread (Count)
system.cpu.statIssuedInstType_0::SimdSha256Hash2            0      0.00%     76.94% # Number of instructions issued per FU type, per thread (Count)
system.cpu.statIssuedInstType_0::SimdShaSigma2            0      0.00%     76.94% # Number of instructions issued per FU type, per thread (Count)
system.cpu.statIssuedInstType_0::SimdShaSigma3            0      0.00%     76.94% # Number of instructions issued per FU type, per thread (Count)
system.cpu.statIssuedInstType_0::SimdPredAlu            0      0.00%     76.94% # Number of instructions issued per FU type, per thread (Count)
system.cpu.statIssuedInstType_0::MemRead      2133518     10.80%     87.74% # Number of instructions issued per FU type, per thread (Count)
system.cpu.statIssuedInstType_0::MemWrite      1008581      5.10%     92.84% # Number of instructions issued per FU type, per thread (Count)
system.cpu.statIssuedInstType_0::FloatMemRead      1388741      7.03%     99.87% # Number of instructions issued per FU type, per thread (Count)
system.cpu.statIssuedInstType_0::FloatMemWrite        25678      0.13%    100.00% # Number of instructions issued per FU type, per thread (Count)
system.cpu.statIssuedInstType_0::IprAccess            0      0.00%    100.00% # Number of instructions issued per FU type, per thread (Count)
system.cpu.statIssuedInstType_0::InstPrefetch            0      0.00%    100.00% # Number of instructions issued per FU type, per thread (Count)
system.cpu.statIssuedInstType_0::total       19762275                       # Number of instructions issued per FU type, per thread (Count)
system.cpu.issueRate                         2.021541                       # Inst issue rate ((Count/Cycle))
system.cpu.fuBusy                              398667                       # FU busy when requested (Count)
system.cpu.fuBusyRate                        0.020173                       # FU busy rate (busy events/executed inst) ((Count/Count))
system.cpu.intInstQueueReads                 43031202                       # Number of integer instruction queue reads (Count)
system.cpu.intInstQueueWrites                18525263                       # Number of integer instruction queue writes (Count)
system.cpu.intInstQueueWakeupAccesses        16246136                       # Number of integer instruction queue wakeup accesses (Count)
system.cpu.fpInstQueueReads                   6646670                       # Number of floating instruction queue reads (Count)
system.cpu.fpInstQueueWrites                  3922689                       # Number of floating instruction queue writes (Count)
system.cpu.fpInstQueueWakeupAccesses          3216886                       # Number of floating instruction queue wakeup accesses (Count)
system.cpu.vecInstQueueReads                        0                       # Number of vector instruction queue reads (Count)
system.cpu.vecInstQueueWrites                       0                       # Number of vector instruction queue writes (Count)
system.cpu.vecInstQueueWakeupAccesses               0                       # Number of vector instruction queue wakeup accesses (Count)
system.cpu.intAluAccesses                    16823060                       # Number of integer alu accesses (Count)
system.cpu.fpAluAccesses                      3329430                       # Number of floating point alu accesses (Count)
system.cpu.vecAluAccesses                           0                       # Number of vector alu accesses (Count)
system.cpu.numInsts                          19588775                       # Number of executed instructions (Count)
system.cpu.numLoadInsts                       3475760                       # Number of load instructions executed (Count)
system.cpu.numSquashedInsts                    173500                       # Number of squashed instructions skipped in execute (Count)
system.cpu.numSwp                                   0                       # Number of swp insts executed (Count)
system.cpu.numNop                                   0                       # Number of nop insts executed (Count)
system.cpu.numRefs                            4508748                       # Number of memory reference insts executed (Count)
system.cpu.numBranches                        4732779                       # Number of branches executed (Count)
system.cpu.numStoreInsts                      1032988                       # Number of stores executed (Count)
system.cpu.numRate                           2.003793                       # Inst execution rate ((Count/Cycle))
system.cpu.timesIdled                             409                       # Number of times that the entire CPU went into an idle state and unscheduled itself (Count)
system.cpu.idleCycles                           34842                       # Total number of cycles that the CPU has spent unscheduled due to idling (Cycle)
system.cpu.committedInsts                    18129095                       # Number of Instructions Simulated (Count)
system.cpu.committedOps                      18129110                       # Number of Ops (including micro ops) Simulated (Count)
system.cpu.cpi                               0.539235                       # CPI: Cycles Per Instruction ((Cycle/Count))
system.cpu.totalCpi                          0.539235                       # CPI: Total CPI of All Threads ((Cycle/Count))
system.cpu.ipc                               1.854478                       # IPC: Instructions Per Cycle ((Count/Cycle))
system.cpu.totalIpc                          1.854478                       # IPC: Total IPC of All Threads ((Count/Cycle))
system.cpu.intRegfileReads                   21916752                       # Number of integer regfile reads (Count)
system.cpu.intRegfileWrites                  11311668                       # Number of integer regfile writes (Count)
system.cpu.fpRegfileReads                     3801231                       # Number of floating regfile reads (Count)
system.cpu.fpRegfileWrites                    2604604                       # Number of floating regfile writes (Count)
system.cpu.miscRegfileReads                   6371059                       # number of misc regfile reads (Count)
system.cpu.miscRegfileWrites                  1773432                       # number of misc regfile writes (Count)
system.cpu.MemDepUnit__0.insertedLoads        3517857                       # Number of loads inserted to the mem dependence unit. (Count)
system.cpu.MemDepUnit__0.insertedStores       1050394                       # Number of stores inserted to the mem dependence unit. (Count)
system.cpu.MemDepUnit__0.conflictingLoads        22992                       # Number of conflicting loads. (Count)
system.cpu.MemDepUnit__0.conflictingStores         8317                       # Number of conflicting stores. (Count)
system.cpu.MemDepUnit__1.insertedLoads              0                       # Number of loads inserted to the mem dependence unit. (Count)
system.cpu.MemDepUnit__1.insertedStores             0                       # Number of stores inserted to the mem dependence unit. (Count)
system.cpu.MemDepUnit__1.conflictingLoads            0                       # Number of conflicting loads. (Count)
system.cpu.MemDepUnit__1.conflictingStores            0                       # Number of conflicting stores. (Count)
system.cpu.MemDepUnit__2.insertedLoads              0                       # Number of loads inserted to the mem dependence unit. (Count)
system.cpu.MemDepUnit__2.insertedStores             0                       # Number of stores inserted to the mem dependence unit. (Count)
system.cpu.MemDepUnit__2.conflictingLoads            0                       # Number of conflicting loads. (Count)
system.cpu.MemDepUnit__2.conflictingStores            0                       # Number of conflicting stores. (Count)
system.cpu.MemDepUnit__3.insertedLoads              0                       # Number of loads inserted to the mem dependence unit. (Count)
system.cpu.MemDepUnit__3.insertedStores             0                       # Number of stores inserted to the mem dependence unit. (Count)
system.cpu.MemDepUnit__3.conflictingLoads            0                       # Number of conflicting loads. (Count)
system.cpu.MemDepUnit__3.conflictingStores            0                       # Number of conflicting stores. (Count)
system.cpu.branchPred.lookups                 5410596                       # Number of BP lookups (Count)
system.cpu.branchPred.condPredicted           4594990                       # Number of conditional branches predicted (Count)
system.cpu.branchPred.condIncorrect            108871                       # Number of conditional branches incorrect (Count)
system.cpu.branchPred.BTBLookups              3509749                       # Number of BTB lookups (Count)
system.cpu.branchPred.BTBHits                 3491745                       # Number of BTB hits (Count)
system.cpu.branchPred.BTBHitRatio            0.994870                       # BTB Hit Ratio (Ratio)
system.cpu.branchPred.RASUsed                       0                       # Number of times the RAS was used to get a target. (Count)
system.cpu.branchPred.RASIncorrect                  0                       # Number of incorrect RAS predictions. (Count)
system.cpu.branchPred.indirectLookups          166479                       # Number of indirect predictor lookups. (Count)
system.cpu.branchPred.indirectHits             164439                       # Number of indirect target hits. (Count)
system.cpu.branchPred.indirectMisses             2040                       # Number of indirect misses. (Count)
system.cpu.branchPred.indirectMispredicted          565                       # Number of mispredicted indirect branches. (Count)
system.cpu.commit.commitSquashedInsts         2159105                       # The number of squashed insts skipped by commit (Count)
system.cpu.commit.commitNonSpecStalls            8470                       # The number of times commit has been forced to stall to communicate backwards (Count)
system.cpu.commit.branchMispredicts            105516                       # The number of times a branch was mispredicted (Count)
system.cpu.commit.numCommittedDist::samples      9413592                       # Number of insts commited each cycle (Count)
system.cpu.commit.numCommittedDist::mean     1.925844                       # Number of insts commited each cycle (Count)
system.cpu.commit.numCommittedDist::stdev     2.599265                       # Number of insts commited each cycle (Count)
system.cpu.commit.numCommittedDist::underflows            0      0.00%      0.00% # Number of insts commited each cycle (Count)
system.cpu.commit.numCommittedDist::0         3895278     41.38%     41.38% # Number of insts commited each cycle (Count)
system.cpu.commit.numCommittedDist::1         2424883     25.76%     67.14% # Number of insts commited each cycle (Count)
system.cpu.commit.numCommittedDist::2          707014      7.51%     74.65% # Number of insts commited each cycle (Count)
system.cpu.commit.numCommittedDist::3          402979      4.28%     78.93% # Number of insts commited each cycle (Count)
system.cpu.commit.numCommittedDist::4          178047      1.89%     80.82% # Number of insts commited each cycle (Count)
system.cpu.commit.numCommittedDist::5          290317      3.08%     83.91% # Number of insts commited each cycle (Count)
system.cpu.commit.numCommittedDist::6          304573      3.24%     87.14% # Number of insts commited each cycle (Count)
system.cpu.commit.numCommittedDist::7          593957      6.31%     93.45% # Number of insts commited each cycle (Count)
system.cpu.commit.numCommittedDist::8          616544      6.55%    100.00% # Number of insts commited each cycle (Count)
system.cpu.commit.numCommittedDist::overflows            0      0.00%    100.00% # Number of insts commited each cycle (Count)
system.cpu.commit.numCommittedDist::min_value            0                       # Number of insts commited each cycle (Count)
system.cpu.commit.numCommittedDist::max_value            8                       # Number of insts commited each cycle (Count)
system.cpu.commit.numCommittedDist::total      9413592                       # Number of insts commited each cycle (Count)
system.cpu.commit.instsCommitted             18129095                       # Number of instructions committed (Count)
system.cpu.commit.opsCommitted               18129110                       # Number of ops (including micro ops) committed (Count)
system.cpu.commit.memRefs                     4175511                       # Number of memory references committed (Count)
system.cpu.commit.loads                       3168072                       # Number of loads committed (Count)
system.cpu.commit.amos                             17                       # Number of atomic instructions committed (Count)
system.cpu.commit.membars                          25                       # Number of memory barriers committed (Count)
system.cpu.commit.branches                    4317805                       # Number of branches committed (Count)
system.cpu.commit.vectorInstructions                0                       # Number of committed Vector instructions. (Count)
system.cpu.commit.floating                    2980213                       # Number of committed floating point instructions. (Count)
system.cpu.commit.integer                    16669909                       # Number of committed integer instructions. (Count)
system.cpu.commit.functionCalls                333420                       # Number of function calls committed. (Count)
system.cpu.commit.committedInstType_0::No_OpClass         8281      0.05%      0.05% # Class of committed instruction (Count)
system.cpu.commit.committedInstType_0::IntAlu     12111290     66.81%     66.85% # Class of committed instruction (Count)
system.cpu.commit.committedInstType_0::IntMult        26935      0.15%     67.00% # Class of committed instruction (Count)
system.cpu.commit.committedInstType_0::IntDiv        33661      0.19%     67.19% # Class of committed instruction (Count)
system.cpu.commit.committedInstType_0::FloatAdd      1155641      6.37%     73.56% # Class of committed instruction (Count)
system.cpu.commit.committedInstType_0::FloatCmp       569268      3.14%     76.70% # Class of committed instruction (Count)
system.cpu.commit.committedInstType_0::FloatCvt         8256      0.05%     76.75% # Class of committed instruction (Count)
system.cpu.commit.committedInstType_0::FloatMult            0      0.00%     76.75% # Class of committed instruction (Count)
system.cpu.commit.committedInstType_0::FloatMultAcc            0      0.00%     76.75% # Class of committed instruction (Count)
system.cpu.commit.committedInstType_0::FloatDiv            0      0.00%     76.75% # Class of committed instruction (Count)
system.cpu.commit.committedInstType_0::FloatMisc        40267      0.22%     76.97% # Class of committed instruction (Count)
system.cpu.commit.committedInstType_0::FloatSqrt            0      0.00%     76.97% # Class of committed instruction (Count)
system.cpu.commit.committedInstType_0::SimdAdd            0      0.00%     76.97% # Class of committed instruction (Count)
system.cpu.commit.committedInstType_0::SimdAddAcc            0      0.00%     76.97% # Class of committed instruction (Count)
system.cpu.commit.committedInstType_0::SimdAlu            0      0.00%     76.97% # Class of committed instruction (Count)
system.cpu.commit.committedInstType_0::SimdCmp            0      0.00%     76.97% # Class of committed instruction (Count)
system.cpu.commit.committedInstType_0::SimdCvt            0      0.00%     76.97% # Class of committed instruction (Count)
system.cpu.commit.committedInstType_0::SimdMisc            0      0.00%     76.97% # Class of committed instruction (Count)
system.cpu.commit.committedInstType_0::SimdMult            0      0.00%     76.97% # Class of committed instruction (Count)
system.cpu.commit.committedInstType_0::SimdMultAcc            0      0.00%     76.97% # Class of committed instruction (Count)
system.cpu.commit.committedInstType_0::SimdShift            0      0.00%     76.97% # Class of committed instruction (Count)
system.cpu.commit.committedInstType_0::SimdShiftAcc            0      0.00%     76.97% # Class of committed instruction (Count)
system.cpu.commit.committedInstType_0::SimdDiv            0      0.00%     76.97% # Class of committed instruction (Count)
system.cpu.commit.committedInstType_0::SimdSqrt            0      0.00%     76.97% # Class of committed instruction (Count)
system.cpu.commit.committedInstType_0::SimdFloatAdd            0      0.00%     76.97% # Class of committed instruction (Count)
system.cpu.commit.committedInstType_0::SimdFloatAlu            0      0.00%     76.97% # Class of committed instruction (Count)
system.cpu.commit.committedInstType_0::SimdFloatCmp            0      0.00%     76.97% # Class of committed instruction (Count)
system.cpu.commit.committedInstType_0::SimdFloatCvt            0      0.00%     76.97% # Class of committed instruction (Count)
system.cpu.commit.committedInstType_0::SimdFloatDiv            0      0.00%     76.97% # Class of committed instruction (Count)
system.cpu.commit.committedInstType_0::SimdFloatMisc            0      0.00%     76.97% # Class of committed instruction (Count)
system.cpu.commit.committedInstType_0::SimdFloatMult            0      0.00%     76.97% # Class of committed instruction (Count)
system.cpu.commit.committedInstType_0::SimdFloatMultAcc            0      0.00%     76.97% # Class of committed instruction (Count)
system.cpu.commit.committedInstType_0::SimdFloatSqrt            0      0.00%     76.97% # Class of committed instruction (Count)
system.cpu.commit.committedInstType_0::SimdReduceAdd            0      0.00%     76.97% # Class of committed instruction (Count)
system.cpu.commit.committedInstType_0::SimdReduceAlu            0      0.00%     76.97% # Class of committed instruction (Count)
system.cpu.commit.committedInstType_0::SimdReduceCmp            0      0.00%     76.97% # Class of committed instruction (Count)
system.cpu.commit.committedInstType_0::SimdFloatReduceAdd            0      0.00%     76.97% # Class of committed instruction (Count)
system.cpu.commit.committedInstType_0::SimdFloatReduceCmp            0      0.00%     76.97% # Class of committed instruction (Count)
system.cpu.commit.committedInstType_0::SimdAes            0      0.00%     76.97% # Class of committed instruction (Count)
system.cpu.commit.committedInstType_0::SimdAesMix            0      0.00%     76.97% # Class of committed instruction (Count)
system.cpu.commit.committedInstType_0::SimdSha1Hash            0      0.00%     76.97% # Class of committed instruction (Count)
system.cpu.commit.committedInstType_0::SimdSha1Hash2            0      0.00%     76.97% # Class of committed instruction (Count)
system.cpu.commit.committedInstType_0::SimdSha256Hash            0      0.00%     76.97% # Class of committed instruction (Count)
system.cpu.commit.committedInstType_0::SimdSha256Hash2            0      0.00%     76.97% # Class of committed instruction (Count)
system.cpu.commit.committedInstType_0::SimdShaSigma2            0      0.00%     76.97% # Class of committed instruction (Count)
system.cpu.commit.committedInstType_0::SimdShaSigma3            0      0.00%     76.97% # Class of committed instruction (Count)
system.cpu.commit.committedInstType_0::SimdPredAlu            0      0.00%     76.97% # Class of committed instruction (Count)
system.cpu.commit.committedInstType_0::MemRead      1986532     10.96%     87.93% # Class of committed instruction (Count)
system.cpu.commit.committedInstType_0::MemWrite       982198      5.42%     93.34% # Class of committed instruction (Count)
system.cpu.commit.committedInstType_0::FloatMemRead      1181557      6.52%     99.86% # Class of committed instruction (Count)
system.cpu.commit.committedInstType_0::FloatMemWrite        25224      0.14%    100.00% # Class of committed instruction (Count)
system.cpu.commit.committedInstType_0::IprAccess            0      0.00%    100.00% # Class of committed instruction (Count)
system.cpu.commit.committedInstType_0::InstPrefetch            0      0.00%    100.00% # Class of committed instruction (Count)
system.cpu.commit.committedInstType_0::total     18129110                       # Class of committed instruction (Count)
system.cpu.commit.commitEligibleSamples        616544                       # number cycles where commit BW limit reached (Cycle)
system.cpu.dcache.demandHits::cpu.data        4350105                       # number of demand (read+write) hits (Count)
system.cpu.dcache.demandHits::total           4350105                       # number of demand (read+write) hits (Count)
system.cpu.dcache.overallHits::cpu.data       4350105                       # number of overall hits (Count)
system.cpu.dcache.overallHits::total          4350105                       # number of overall hits (Count)
system.cpu.dcache.demandMisses::cpu.data        70245                       # number of demand (read+write) misses (Count)
system.cpu.dcache.demandMisses::total           70245                       # number of demand (read+write) misses (Count)
system.cpu.dcache.overallMisses::cpu.data        70245                       # number of overall misses (Count)
system.cpu.dcache.overallMisses::total          70245                       # number of overall misses (Count)
system.cpu.dcache.demandMissLatency::cpu.data   3712070360                       # number of demand (read+write) miss ticks (Tick)
system.cpu.dcache.demandMissLatency::total   3712070360                       # number of demand (read+write) miss ticks (Tick)
system.cpu.dcache.overallMissLatency::cpu.data   3712070360                       # number of overall miss ticks (Tick)
system.cpu.dcache.overallMissLatency::total   3712070360                       # number of overall miss ticks (Tick)
system.cpu.dcache.demandAccesses::cpu.data      4420350                       # number of demand (read+write) accesses (Count)
system.cpu.dcache.demandAccesses::total       4420350                       # number of demand (read+write) accesses (Count)
system.cpu.dcache.overallAccesses::cpu.data      4420350                       # number of overall (read+write) accesses (Count)
system.cpu.dcache.overallAccesses::total      4420350                       # number of overall (read+write) accesses (Count)
system.cpu.dcache.demandMissRate::cpu.data     0.015891                       # miss rate for demand accesses (Ratio)
system.cpu.dcache.demandMissRate::total      0.015891                       # miss rate for demand accesses (Ratio)
system.cpu.dcache.overallMissRate::cpu.data     0.015891                       # miss rate for overall accesses (Ratio)
system.cpu.dcache.overallMissRate::total     0.015891                       # miss rate for overall accesses (Ratio)
system.cpu.dcache.demandAvgMissLatency::cpu.data 52844.620400                       # average overall miss latency ((Cycle/Count))
system.cpu.dcache.demandAvgMissLatency::total 52844.620400                       # average overall miss latency ((Cycle/Count))
system.cpu.dcache.overallAvgMissLatency::cpu.data 52844.620400                       # average overall miss latency ((Cycle/Count))
system.cpu.dcache.overallAvgMissLatency::total 52844.620400                       # average overall miss latency ((Cycle/Count))
system.cpu.dcache.blockedCycles::no_mshrs        66762                       # number of cycles access was blocked (Cycle)
system.cpu.dcache.blockedCycles::no_targets        81797                       # number of cycles access was blocked (Cycle)
system.cpu.dcache.blockedCauses::no_mshrs         2169                       # number of times access was blocked (Count)
system.cpu.dcache.blockedCauses::no_targets         1111                       # number of times access was blocked (Count)
system.cpu.dcache.avgBlocked::no_mshrs      30.780083                       # average number of cycles each access was blocked ((Cycle/Count))
system.cpu.dcache.avgBlocked::no_targets    73.624662                       # average number of cycles each access was blocked ((Cycle/Count))
system.cpu.dcache.writebacks::writebacks         5913                       # number of writebacks (Count)
system.cpu.dcache.writebacks::total              5913                       # number of writebacks (Count)
system.cpu.dcache.demandMshrHits::cpu.data        57929                       # number of demand (read+write) MSHR hits (Count)
system.cpu.dcache.demandMshrHits::total         57929                       # number of demand (read+write) MSHR hits (Count)
system.cpu.dcache.overallMshrHits::cpu.data        57929                       # number of overall MSHR hits (Count)
system.cpu.dcache.overallMshrHits::total        57929                       # number of overall MSHR hits (Count)
system.cpu.dcache.demandMshrMisses::cpu.data        12316                       # number of demand (read+write) MSHR misses (Count)
system.cpu.dcache.demandMshrMisses::total        12316                       # number of demand (read+write) MSHR misses (Count)
system.cpu.dcache.overallMshrMisses::cpu.data        12316                       # number of overall MSHR misses (Count)
system.cpu.dcache.overallMshrMisses::total        12316                       # number of overall MSHR misses (Count)
system.cpu.dcache.demandMshrMissLatency::cpu.data    726997995                       # number of demand (read+write) MSHR miss ticks (Tick)
system.cpu.dcache.demandMshrMissLatency::total    726997995                       # number of demand (read+write) MSHR miss ticks (Tick)
system.cpu.dcache.overallMshrMissLatency::cpu.data    726997995                       # number of overall MSHR miss ticks (Tick)
system.cpu.dcache.overallMshrMissLatency::total    726997995                       # number of overall MSHR miss ticks (Tick)
system.cpu.dcache.demandMshrMissRate::cpu.data     0.002786                       # mshr miss ratio for demand accesses (Ratio)
system.cpu.dcache.demandMshrMissRate::total     0.002786                       # mshr miss ratio for demand accesses (Ratio)
system.cpu.dcache.overallMshrMissRate::cpu.data     0.002786                       # mshr miss ratio for overall accesses (Ratio)
system.cpu.dcache.overallMshrMissRate::total     0.002786                       # mshr miss ratio for overall accesses (Ratio)
system.cpu.dcache.demandAvgMshrMissLatency::cpu.data 59028.742692                       # average overall mshr miss latency ((Cycle/Count))
system.cpu.dcache.demandAvgMshrMissLatency::total 59028.742692                       # average overall mshr miss latency ((Cycle/Count))
system.cpu.dcache.overallAvgMshrMissLatency::cpu.data 59028.742692                       # average overall mshr miss latency ((Cycle/Count))
system.cpu.dcache.overallAvgMshrMissLatency::total 59028.742692                       # average overall mshr miss latency ((Cycle/Count))
system.cpu.dcache.replacements                  11295                       # number of replacements (Count)
system.cpu.dcache.LoadLockedReq.hits::cpu.data            8                       # number of LoadLockedReq hits (Count)
system.cpu.dcache.LoadLockedReq.hits::total            8                       # number of LoadLockedReq hits (Count)
system.cpu.dcache.LoadLockedReq.misses::cpu.data            4                       # number of LoadLockedReq misses (Count)
system.cpu.dcache.LoadLockedReq.misses::total            4                       # number of LoadLockedReq misses (Count)
system.cpu.dcache.LoadLockedReq.missLatency::cpu.data       501500                       # number of LoadLockedReq miss ticks (Tick)
system.cpu.dcache.LoadLockedReq.missLatency::total       501500                       # number of LoadLockedReq miss ticks (Tick)
system.cpu.dcache.LoadLockedReq.accesses::cpu.data           12                       # number of LoadLockedReq accesses(hits+misses) (Count)
system.cpu.dcache.LoadLockedReq.accesses::total           12                       # number of LoadLockedReq accesses(hits+misses) (Count)
system.cpu.dcache.LoadLockedReq.missRate::cpu.data     0.333333                       # miss rate for LoadLockedReq accesses (Ratio)
system.cpu.dcache.LoadLockedReq.missRate::total     0.333333                       # miss rate for LoadLockedReq accesses (Ratio)
system.cpu.dcache.LoadLockedReq.avgMissLatency::cpu.data       125375                       # average LoadLockedReq miss latency ((Tick/Count))
system.cpu.dcache.LoadLockedReq.avgMissLatency::total       125375                       # average LoadLockedReq miss latency ((Tick/Count))
system.cpu.dcache.LoadLockedReq.mshrHits::cpu.data            2                       # number of LoadLockedReq MSHR hits (Count)
system.cpu.dcache.LoadLockedReq.mshrHits::total            2                       # number of LoadLockedReq MSHR hits (Count)
system.cpu.dcache.LoadLockedReq.mshrMisses::cpu.data            2                       # number of LoadLockedReq MSHR misses (Count)
system.cpu.dcache.LoadLockedReq.mshrMisses::total            2                       # number of LoadLockedReq MSHR misses (Count)
system.cpu.dcache.LoadLockedReq.mshrMissLatency::cpu.data       261000                       # number of LoadLockedReq MSHR miss ticks (Tick)
system.cpu.dcache.LoadLockedReq.mshrMissLatency::total       261000                       # number of LoadLockedReq MSHR miss ticks (Tick)
system.cpu.dcache.LoadLockedReq.mshrMissRate::cpu.data     0.166667                       # mshr miss rate for LoadLockedReq accesses (Ratio)
system.cpu.dcache.LoadLockedReq.mshrMissRate::total     0.166667                       # mshr miss rate for LoadLockedReq accesses (Ratio)
system.cpu.dcache.LoadLockedReq.avgMshrMissLatency::cpu.data       130500                       # average LoadLockedReq mshr miss latency ((Tick/Count))
system.cpu.dcache.LoadLockedReq.avgMshrMissLatency::total       130500                       # average LoadLockedReq mshr miss latency ((Tick/Count))
system.cpu.dcache.ReadReq.hits::cpu.data      3362135                       # number of ReadReq hits (Count)
system.cpu.dcache.ReadReq.hits::total         3362135                       # number of ReadReq hits (Count)
system.cpu.dcache.ReadReq.misses::cpu.data        50802                       # number of ReadReq misses (Count)
system.cpu.dcache.ReadReq.misses::total         50802                       # number of ReadReq misses (Count)
system.cpu.dcache.ReadReq.missLatency::cpu.data   2727652000                       # number of ReadReq miss ticks (Tick)
system.cpu.dcache.ReadReq.missLatency::total   2727652000                       # number of ReadReq miss ticks (Tick)
system.cpu.dcache.ReadReq.accesses::cpu.data      3412937                       # number of ReadReq accesses(hits+misses) (Count)
system.cpu.dcache.ReadReq.accesses::total      3412937                       # number of ReadReq accesses(hits+misses) (Count)
system.cpu.dcache.ReadReq.missRate::cpu.data     0.014885                       # miss rate for ReadReq accesses (Ratio)
system.cpu.dcache.ReadReq.missRate::total     0.014885                       # miss rate for ReadReq accesses (Ratio)
system.cpu.dcache.ReadReq.avgMissLatency::cpu.data 53691.823157                       # average ReadReq miss latency ((Tick/Count))
system.cpu.dcache.ReadReq.avgMissLatency::total 53691.823157                       # average ReadReq miss latency ((Tick/Count))
system.cpu.dcache.ReadReq.mshrHits::cpu.data        42856                       # number of ReadReq MSHR hits (Count)
system.cpu.dcache.ReadReq.mshrHits::total        42856                       # number of ReadReq MSHR hits (Count)
system.cpu.dcache.ReadReq.mshrMisses::cpu.data         7946                       # number of ReadReq MSHR misses (Count)
system.cpu.dcache.ReadReq.mshrMisses::total         7946                       # number of ReadReq MSHR misses (Count)
system.cpu.dcache.ReadReq.mshrMissLatency::cpu.data    473675000                       # number of ReadReq MSHR miss ticks (Tick)
system.cpu.dcache.ReadReq.mshrMissLatency::total    473675000                       # number of ReadReq MSHR miss ticks (Tick)
system.cpu.dcache.ReadReq.mshrMissRate::cpu.data     0.002328                       # mshr miss rate for ReadReq accesses (Ratio)
system.cpu.dcache.ReadReq.mshrMissRate::total     0.002328                       # mshr miss rate for ReadReq accesses (Ratio)
system.cpu.dcache.ReadReq.avgMshrMissLatency::cpu.data 59611.754342                       # average ReadReq mshr miss latency ((Tick/Count))
system.cpu.dcache.ReadReq.avgMshrMissLatency::total 59611.754342                       # average ReadReq mshr miss latency ((Tick/Count))
system.cpu.dcache.StoreCondReq.hits::cpu.data            9                       # number of StoreCondReq hits (Count)
system.cpu.dcache.StoreCondReq.hits::total            9                       # number of StoreCondReq hits (Count)
system.cpu.dcache.StoreCondReq.accesses::cpu.data            9                       # number of StoreCondReq accesses(hits+misses) (Count)
system.cpu.dcache.StoreCondReq.accesses::total            9                       # number of StoreCondReq accesses(hits+misses) (Count)
system.cpu.dcache.SwapReq.hits::cpu.data           16                       # number of SwapReq hits (Count)
system.cpu.dcache.SwapReq.hits::total              16                       # number of SwapReq hits (Count)
system.cpu.dcache.SwapReq.misses::cpu.data            1                       # number of SwapReq misses (Count)
system.cpu.dcache.SwapReq.misses::total             1                       # number of SwapReq misses (Count)
system.cpu.dcache.SwapReq.missLatency::cpu.data        51999                       # number of SwapReq miss ticks (Tick)
system.cpu.dcache.SwapReq.missLatency::total        51999                       # number of SwapReq miss ticks (Tick)
system.cpu.dcache.SwapReq.accesses::cpu.data           17                       # number of SwapReq accesses(hits+misses) (Count)
system.cpu.dcache.SwapReq.accesses::total           17                       # number of SwapReq accesses(hits+misses) (Count)
system.cpu.dcache.SwapReq.missRate::cpu.data     0.058824                       # miss rate for SwapReq accesses (Ratio)
system.cpu.dcache.SwapReq.missRate::total     0.058824                       # miss rate for SwapReq accesses (Ratio)
system.cpu.dcache.SwapReq.avgMissLatency::cpu.data        51999                       # average SwapReq miss latency ((Tick/Count))
system.cpu.dcache.SwapReq.avgMissLatency::total        51999                       # average SwapReq miss latency ((Tick/Count))
system.cpu.dcache.SwapReq.mshrMisses::cpu.data            1                       # number of SwapReq MSHR misses (Count)
system.cpu.dcache.SwapReq.mshrMisses::total            1                       # number of SwapReq MSHR misses (Count)
system.cpu.dcache.SwapReq.mshrMissLatency::cpu.data        50999                       # number of SwapReq MSHR miss ticks (Tick)
system.cpu.dcache.SwapReq.mshrMissLatency::total        50999                       # number of SwapReq MSHR miss ticks (Tick)
system.cpu.dcache.SwapReq.mshrMissRate::cpu.data     0.058824                       # mshr miss rate for SwapReq accesses (Ratio)
system.cpu.dcache.SwapReq.mshrMissRate::total     0.058824                       # mshr miss rate for SwapReq accesses (Ratio)
system.cpu.dcache.SwapReq.avgMshrMissLatency::cpu.data        50999                       # average SwapReq mshr miss latency ((Tick/Count))
system.cpu.dcache.SwapReq.avgMshrMissLatency::total        50999                       # average SwapReq mshr miss latency ((Tick/Count))
system.cpu.dcache.WriteReq.hits::cpu.data       987970                       # number of WriteReq hits (Count)
system.cpu.dcache.WriteReq.hits::total         987970                       # number of WriteReq hits (Count)
system.cpu.dcache.WriteReq.misses::cpu.data        19443                       # number of WriteReq misses (Count)
system.cpu.dcache.WriteReq.misses::total        19443                       # number of WriteReq misses (Count)
system.cpu.dcache.WriteReq.missLatency::cpu.data    984418360                       # number of WriteReq miss ticks (Tick)
system.cpu.dcache.WriteReq.missLatency::total    984418360                       # number of WriteReq miss ticks (Tick)
system.cpu.dcache.WriteReq.accesses::cpu.data      1007413                       # number of WriteReq accesses(hits+misses) (Count)
system.cpu.dcache.WriteReq.accesses::total      1007413                       # number of WriteReq accesses(hits+misses) (Count)
system.cpu.dcache.WriteReq.missRate::cpu.data     0.019300                       # miss rate for WriteReq accesses (Ratio)
system.cpu.dcache.WriteReq.missRate::total     0.019300                       # miss rate for WriteReq accesses (Ratio)
system.cpu.dcache.WriteReq.avgMissLatency::cpu.data 50630.991102                       # average WriteReq miss latency ((Tick/Count))
system.cpu.dcache.WriteReq.avgMissLatency::total 50630.991102                       # average WriteReq miss latency ((Tick/Count))
system.cpu.dcache.WriteReq.mshrHits::cpu.data        15073                       # number of WriteReq MSHR hits (Count)
system.cpu.dcache.WriteReq.mshrHits::total        15073                       # number of WriteReq MSHR hits (Count)
system.cpu.dcache.WriteReq.mshrMisses::cpu.data         4370                       # number of WriteReq MSHR misses (Count)
system.cpu.dcache.WriteReq.mshrMisses::total         4370                       # number of WriteReq MSHR misses (Count)
system.cpu.dcache.WriteReq.mshrMissLatency::cpu.data    253322995                       # number of WriteReq MSHR miss ticks (Tick)
system.cpu.dcache.WriteReq.mshrMissLatency::total    253322995                       # number of WriteReq MSHR miss ticks (Tick)
system.cpu.dcache.WriteReq.mshrMissRate::cpu.data     0.004338                       # mshr miss rate for WriteReq accesses (Ratio)
system.cpu.dcache.WriteReq.mshrMissRate::total     0.004338                       # mshr miss rate for WriteReq accesses (Ratio)
system.cpu.dcache.WriteReq.avgMshrMissLatency::cpu.data 57968.648741                       # average WriteReq mshr miss latency ((Tick/Count))
system.cpu.dcache.WriteReq.avgMshrMissLatency::total 57968.648741                       # average WriteReq mshr miss latency ((Tick/Count))
system.cpu.dcache.power_state.pwrStateResidencyTicks::UNDEFINED   4887922500                       # Cumulative time (in ticks) in various power states (Tick)
system.cpu.dcache.tags.tagsInUse          1020.691192                       # Average ticks per tags in use ((Tick/Count))
system.cpu.dcache.tags.totalRefs              4362457                       # Total number of references to valid blocks. (Count)
system.cpu.dcache.tags.sampledRefs              12319                       # Sample count of references to valid blocks. (Count)
system.cpu.dcache.tags.avgRefs             354.124280                       # Average number of references to valid blocks. ((Count/Count))
system.cpu.dcache.tags.warmupTick              152000                       # The tick when the warmup percentage was hit. (Tick)
system.cpu.dcache.tags.occupancies::cpu.data  1020.691192                       # Average occupied blocks per tick, per requestor ((Count/Tick))
system.cpu.dcache.tags.avgOccs::cpu.data     0.996769                       # Average percentage of cache occupancy ((Ratio/Tick))
system.cpu.dcache.tags.avgOccs::total        0.996769                       # Average percentage of cache occupancy ((Ratio/Tick))
system.cpu.dcache.tags.occupanciesTaskId::1024         1024                       # Occupied blocks per task id (Count)
system.cpu.dcache.tags.ageTaskId_1024::0           53                       # Occupied blocks per task id, per block age (Count)
system.cpu.dcache.tags.ageTaskId_1024::1          971                       # Occupied blocks per task id, per block age (Count)
system.cpu.dcache.tags.ratioOccsTaskId::1024            1                       # Ratio of occupied blocks and all blocks, per task id (Ratio)
system.cpu.dcache.tags.tagAccesses            8853095                       # Number of tag accesses (Count)
system.cpu.dcache.tags.dataAccesses           8853095                       # Number of data accesses (Count)
system.cpu.dcache.tags.power_state.pwrStateResidencyTicks::UNDEFINED   4887922500                       # Cumulative time (in ticks) in various power states (Tick)
system.cpu.decode.idleCycles                  3370418                       # Number of cycles decode is idle (Cycle)
system.cpu.decode.blockedCycles                962658                       # Number of cycles decode is blocked (Cycle)
system.cpu.decode.runCycles                   5189397                       # Number of cycles decode is running (Cycle)
system.cpu.decode.unblockCycles                112792                       # Number of cycles decode is unblocking (Cycle)
system.cpu.decode.squashCycles                 105739                       # Number of cycles decode is squashing (Cycle)
system.cpu.decode.branchResolved              3444036                       # Number of times decode resolved a branch (Count)
system.cpu.decode.branchMispred                  3441                       # Number of times decode detected a branch misprediction (Count)
system.cpu.decode.decodedInsts               21365115                       # Number of instructions handled by decode (Count)
system.cpu.decode.squashedInsts                  4864                       # Number of squashed instructions handled by decode (Count)
system.cpu.dtb_walker_cache.blockedCycles::no_mshrs            0                       # number of cycles access was blocked (Cycle)
system.cpu.dtb_walker_cache.blockedCycles::no_targets            0                       # number of cycles access was blocked (Cycle)
system.cpu.dtb_walker_cache.blockedCauses::no_mshrs            0                       # number of times access was blocked (Count)
system.cpu.dtb_walker_cache.blockedCauses::no_targets            0                       # number of times access was blocked (Count)
system.cpu.dtb_walker_cache.avgBlocked::no_mshrs          nan                       # average number of cycles each access was blocked ((Cycle/Count))
system.cpu.dtb_walker_cache.avgBlocked::no_targets          nan                       # average number of cycles each access was blocked ((Cycle/Count))
system.cpu.dtb_walker_cache.replacements            0                       # number of replacements (Count)
system.cpu.dtb_walker_cache.power_state.pwrStateResidencyTicks::UNDEFINED   4887922500                       # Cumulative time (in ticks) in various power states (Tick)
system.cpu.dtb_walker_cache.tags.tagsInUse            0                       # Average ticks per tags in use ((Tick/Count))
system.cpu.dtb_walker_cache.tags.totalRefs            0                       # Total number of references to valid blocks. (Count)
system.cpu.dtb_walker_cache.tags.sampledRefs            0                       # Sample count of references to valid blocks. (Count)
system.cpu.dtb_walker_cache.tags.avgRefs          nan                       # Average number of references to valid blocks. ((Count/Count))
system.cpu.dtb_walker_cache.tags.warmupTick            0                       # The tick when the warmup percentage was hit. (Tick)
system.cpu.dtb_walker_cache.tags.tagAccesses            0                       # Number of tag accesses (Count)
system.cpu.dtb_walker_cache.tags.dataAccesses            0                       # Number of data accesses (Count)
system.cpu.dtb_walker_cache.tags.power_state.pwrStateResidencyTicks::UNDEFINED   4887922500                       # Cumulative time (in ticks) in various power states (Tick)
system.cpu.fetch.icacheStallCycles            3497010                       # Number of cycles fetch is stalled on an Icache miss (Cycle)
system.cpu.fetch.insts                       21663685                       # Number of instructions fetch has processed (Count)
system.cpu.fetch.branches                     5410596                       # Number of branches that fetch encountered (Count)
system.cpu.fetch.predictedBranches            3656184                       # Number of branches that fetch has predicted taken (Count)
system.cpu.fetch.cycles                       6134612                       # Number of cycles fetch has run and was not squashing or blocked (Cycle)
system.cpu.fetch.squashCycles                  218204                       # Number of cycles fetch has spent squashing (Cycle)
system.cpu.fetch.miscStallCycles                  147                       # Number of cycles fetch has spent waiting on interrupts, or bad addresses, or out of MSHRs (Cycle)
system.cpu.fetch.pendingTrapStallCycles            50                       # Number of stall cycles due to pending traps (Cycle)
system.cpu.fetch.icacheWaitRetryStallCycles           83                       # Number of stall cycles due to full MSHR (Cycle)
system.cpu.fetch.cacheLines                   3446560                       # Number of cache lines fetched (Count)
system.cpu.fetch.icacheSquashes                 19352                       # Number of outstanding Icache misses that were squashed (Count)
system.cpu.fetch.nisnDist::samples            9741004                       # Number of instructions fetched each cycle (Total) (Count)
system.cpu.fetch.nisnDist::mean              2.223976                       # Number of instructions fetched each cycle (Total) (Count)
system.cpu.fetch.nisnDist::stdev             2.695514                       # Number of instructions fetched each cycle (Total) (Count)
system.cpu.fetch.nisnDist::underflows               0      0.00%      0.00% # Number of instructions fetched each cycle (Total) (Count)
system.cpu.fetch.nisnDist::0                  4170513     42.81%     42.81% # Number of instructions fetched each cycle (Total) (Count)
system.cpu.fetch.nisnDist::1                  1480066     15.19%     58.01% # Number of instructions fetched each cycle (Total) (Count)
system.cpu.fetch.nisnDist::2                   522881      5.37%     63.38% # Number of instructions fetched each cycle (Total) (Count)
system.cpu.fetch.nisnDist::3                   831045      8.53%     71.91% # Number of instructions fetched each cycle (Total) (Count)
system.cpu.fetch.nisnDist::4                   460903      4.73%     76.64% # Number of instructions fetched each cycle (Total) (Count)
system.cpu.fetch.nisnDist::5                   875492      8.99%     85.63% # Number of instructions fetched each cycle (Total) (Count)
system.cpu.fetch.nisnDist::6                   346524      3.56%     89.18% # Number of instructions fetched each cycle (Total) (Count)
system.cpu.fetch.nisnDist::7                    84062      0.86%     90.05% # Number of instructions fetched each cycle (Total) (Count)
system.cpu.fetch.nisnDist::8                   969518      9.95%    100.00% # Number of instructions fetched each cycle (Total) (Count)
system.cpu.fetch.nisnDist::overflows                0      0.00%    100.00% # Number of instructions fetched each cycle (Total) (Count)
system.cpu.fetch.nisnDist::min_value                0                       # Number of instructions fetched each cycle (Total) (Count)
system.cpu.fetch.nisnDist::max_value                8                       # Number of instructions fetched each cycle (Total) (Count)
system.cpu.fetch.nisnDist::total              9741004                       # Number of instructions fetched each cycle (Total) (Count)
system.cpu.fetch.branchRate                  0.553466                       # Number of branch fetches per cycle (Ratio)
system.cpu.fetch.rate                        2.216042                       # Number of inst fetches per cycle ((Count/Cycle))
system.cpu.icache.demandHits::cpu.inst        3445704                       # number of demand (read+write) hits (Count)
system.cpu.icache.demandHits::total           3445704                       # number of demand (read+write) hits (Count)
system.cpu.icache.overallHits::cpu.inst       3445704                       # number of overall hits (Count)
system.cpu.icache.overallHits::total          3445704                       # number of overall hits (Count)
system.cpu.icache.demandMisses::cpu.inst          854                       # number of demand (read+write) misses (Count)
system.cpu.icache.demandMisses::total             854                       # number of demand (read+write) misses (Count)
system.cpu.icache.overallMisses::cpu.inst          854                       # number of overall misses (Count)
system.cpu.icache.overallMisses::total            854                       # number of overall misses (Count)
system.cpu.icache.demandMissLatency::cpu.inst     51417497                       # number of demand (read+write) miss ticks (Tick)
system.cpu.icache.demandMissLatency::total     51417497                       # number of demand (read+write) miss ticks (Tick)
system.cpu.icache.overallMissLatency::cpu.inst     51417497                       # number of overall miss ticks (Tick)
system.cpu.icache.overallMissLatency::total     51417497                       # number of overall miss ticks (Tick)
system.cpu.icache.demandAccesses::cpu.inst      3446558                       # number of demand (read+write) accesses (Count)
system.cpu.icache.demandAccesses::total       3446558                       # number of demand (read+write) accesses (Count)
system.cpu.icache.overallAccesses::cpu.inst      3446558                       # number of overall (read+write) accesses (Count)
system.cpu.icache.overallAccesses::total      3446558                       # number of overall (read+write) accesses (Count)
system.cpu.icache.demandMissRate::cpu.inst     0.000248                       # miss rate for demand accesses (Ratio)
system.cpu.icache.demandMissRate::total      0.000248                       # miss rate for demand accesses (Ratio)
system.cpu.icache.overallMissRate::cpu.inst     0.000248                       # miss rate for overall accesses (Ratio)
system.cpu.icache.overallMissRate::total     0.000248                       # miss rate for overall accesses (Ratio)
system.cpu.icache.demandAvgMissLatency::cpu.inst 60207.841920                       # average overall miss latency ((Cycle/Count))
system.cpu.icache.demandAvgMissLatency::total 60207.841920                       # average overall miss latency ((Cycle/Count))
system.cpu.icache.overallAvgMissLatency::cpu.inst 60207.841920                       # average overall miss latency ((Cycle/Count))
system.cpu.icache.overallAvgMissLatency::total 60207.841920                       # average overall miss latency ((Cycle/Count))
system.cpu.icache.blockedCycles::no_mshrs          862                       # number of cycles access was blocked (Cycle)
system.cpu.icache.blockedCycles::no_targets            0                       # number of cycles access was blocked (Cycle)
system.cpu.icache.blockedCauses::no_mshrs           19                       # number of times access was blocked (Count)
system.cpu.icache.blockedCauses::no_targets            0                       # number of times access was blocked (Count)
system.cpu.icache.avgBlocked::no_mshrs      45.368421                       # average number of cycles each access was blocked ((Cycle/Count))
system.cpu.icache.avgBlocked::no_targets          nan                       # average number of cycles each access was blocked ((Cycle/Count))
system.cpu.icache.writebacks::writebacks          243                       # number of writebacks (Count)
system.cpu.icache.writebacks::total               243                       # number of writebacks (Count)
system.cpu.icache.demandMshrHits::cpu.inst          179                       # number of demand (read+write) MSHR hits (Count)
system.cpu.icache.demandMshrHits::total           179                       # number of demand (read+write) MSHR hits (Count)
system.cpu.icache.overallMshrHits::cpu.inst          179                       # number of overall MSHR hits (Count)
system.cpu.icache.overallMshrHits::total          179                       # number of overall MSHR hits (Count)
system.cpu.icache.demandMshrMisses::cpu.inst          675                       # number of demand (read+write) MSHR misses (Count)
system.cpu.icache.demandMshrMisses::total          675                       # number of demand (read+write) MSHR misses (Count)
system.cpu.icache.overallMshrMisses::cpu.inst          675                       # number of overall MSHR misses (Count)
system.cpu.icache.overallMshrMisses::total          675                       # number of overall MSHR misses (Count)
system.cpu.icache.demandMshrMissLatency::cpu.inst     42855498                       # number of demand (read+write) MSHR miss ticks (Tick)
system.cpu.icache.demandMshrMissLatency::total     42855498                       # number of demand (read+write) MSHR miss ticks (Tick)
system.cpu.icache.overallMshrMissLatency::cpu.inst     42855498                       # number of overall MSHR miss ticks (Tick)
system.cpu.icache.overallMshrMissLatency::total     42855498                       # number of overall MSHR miss ticks (Tick)
system.cpu.icache.demandMshrMissRate::cpu.inst     0.000196                       # mshr miss ratio for demand accesses (Ratio)
system.cpu.icache.demandMshrMissRate::total     0.000196                       # mshr miss ratio for demand accesses (Ratio)
system.cpu.icache.overallMshrMissRate::cpu.inst     0.000196                       # mshr miss ratio for overall accesses (Ratio)
system.cpu.icache.overallMshrMissRate::total     0.000196                       # mshr miss ratio for overall accesses (Ratio)
system.cpu.icache.demandAvgMshrMissLatency::cpu.inst 63489.626667                       # average overall mshr miss latency ((Cycle/Count))
system.cpu.icache.demandAvgMshrMissLatency::total 63489.626667                       # average overall mshr miss latency ((Cycle/Count))
system.cpu.icache.overallAvgMshrMissLatency::cpu.inst 63489.626667                       # average overall mshr miss latency ((Cycle/Count))
system.cpu.icache.overallAvgMshrMissLatency::total 63489.626667                       # average overall mshr miss latency ((Cycle/Count))
system.cpu.icache.replacements                    243                       # number of replacements (Count)
system.cpu.icache.ReadReq.hits::cpu.inst      3445704                       # number of ReadReq hits (Count)
system.cpu.icache.ReadReq.hits::total         3445704                       # number of ReadReq hits (Count)
system.cpu.icache.ReadReq.misses::cpu.inst          854                       # number of ReadReq misses (Count)
system.cpu.icache.ReadReq.misses::total           854                       # number of ReadReq misses (Count)
system.cpu.icache.ReadReq.missLatency::cpu.inst     51417497                       # number of ReadReq miss ticks (Tick)
system.cpu.icache.ReadReq.missLatency::total     51417497                       # number of ReadReq miss ticks (Tick)
system.cpu.icache.ReadReq.accesses::cpu.inst      3446558                       # number of ReadReq accesses(hits+misses) (Count)
system.cpu.icache.ReadReq.accesses::total      3446558                       # number of ReadReq accesses(hits+misses) (Count)
system.cpu.icache.ReadReq.missRate::cpu.inst     0.000248                       # miss rate for ReadReq accesses (Ratio)
system.cpu.icache.ReadReq.missRate::total     0.000248                       # miss rate for ReadReq accesses (Ratio)
system.cpu.icache.ReadReq.avgMissLatency::cpu.inst 60207.841920                       # average ReadReq miss latency ((Tick/Count))
system.cpu.icache.ReadReq.avgMissLatency::total 60207.841920                       # average ReadReq miss latency ((Tick/Count))
system.cpu.icache.ReadReq.mshrHits::cpu.inst          179                       # number of ReadReq MSHR hits (Count)
system.cpu.icache.ReadReq.mshrHits::total          179                       # number of ReadReq MSHR hits (Count)
system.cpu.icache.ReadReq.mshrMisses::cpu.inst          675                       # number of ReadReq MSHR misses (Count)
system.cpu.icache.ReadReq.mshrMisses::total          675                       # number of ReadReq MSHR misses (Count)
system.cpu.icache.ReadReq.mshrMissLatency::cpu.inst     42855498                       # number of ReadReq MSHR miss ticks (Tick)
system.cpu.icache.ReadReq.mshrMissLatency::total     42855498                       # number of ReadReq MSHR miss ticks (Tick)
system.cpu.icache.ReadReq.mshrMissRate::cpu.inst     0.000196                       # mshr miss rate for ReadReq accesses (Ratio)
system.cpu.icache.ReadReq.mshrMissRate::total     0.000196                       # mshr miss rate for ReadReq accesses (Ratio)
system.cpu.icache.ReadReq.avgMshrMissLatency::cpu.inst 63489.626667                       # average ReadReq mshr miss latency ((Tick/Count))
system.cpu.icache.ReadReq.avgMshrMissLatency::total 63489.626667                       # average ReadReq mshr miss latency ((Tick/Count))
system.cpu.icache.power_state.pwrStateResidencyTicks::UNDEFINED   4887922500                       # Cumulative time (in ticks) in various power states (Tick)
system.cpu.icache.tags.tagsInUse           331.140715                       # Average ticks per tags in use ((Tick/Count))
system.cpu.icache.tags.totalRefs              3446377                       # Total number of references to valid blocks. (Count)
system.cpu.icache.tags.sampledRefs                673                       # Sample count of references to valid blocks. (Count)
system.cpu.icache.tags.avgRefs            5120.916790                       # Average number of references to valid blocks. ((Count/Count))
system.cpu.icache.tags.warmupTick               77000                       # The tick when the warmup percentage was hit. (Tick)
system.cpu.icache.tags.occupancies::cpu.inst   331.140715                       # Average occupied blocks per tick, per requestor ((Count/Tick))
system.cpu.icache.tags.avgOccs::cpu.inst     0.646759                       # Average percentage of cache occupancy ((Ratio/Tick))
system.cpu.icache.tags.avgOccs::total        0.646759                       # Average percentage of cache occupancy ((Ratio/Tick))
system.cpu.icache.tags.occupanciesTaskId::1024          430                       # Occupied blocks per task id (Count)
system.cpu.icache.tags.ageTaskId_1024::0          119                       # Occupied blocks per task id, per block age (Count)
system.cpu.icache.tags.ageTaskId_1024::1           84                       # Occupied blocks per task id, per block age (Count)
system.cpu.icache.tags.ageTaskId_1024::3          227                       # Occupied blocks per task id, per block age (Count)
system.cpu.icache.tags.ratioOccsTaskId::1024     0.839844                       # Ratio of occupied blocks and all blocks, per task id (Ratio)
system.cpu.icache.tags.tagAccesses            6893789                       # Number of tag accesses (Count)
system.cpu.icache.tags.dataAccesses           6893789                       # Number of data accesses (Count)
system.cpu.icache.tags.power_state.pwrStateResidencyTicks::UNDEFINED   4887922500                       # Cumulative time (in ticks) in various power states (Tick)
system.cpu.iew.idleCycles                           0                       # Number of cycles IEW is idle (Cycle)
system.cpu.iew.squashCycles                    105739                       # Number of cycles IEW is squashing (Cycle)
system.cpu.iew.blockCycles                     244433                       # Number of cycles IEW is blocking (Cycle)
system.cpu.iew.unblockCycles                   135885                       # Number of cycles IEW is unblocking (Cycle)
system.cpu.iew.dispatchedInsts               20288517                       # Number of instructions dispatched to IQ (Count)
system.cpu.iew.dispSquashedInsts                76195                       # Number of squashed instructions skipped by dispatch (Count)
system.cpu.iew.dispLoadInsts                  3517857                       # Number of dispatched load instructions (Count)
system.cpu.iew.dispStoreInsts                 1050394                       # Number of dispatched store instructions (Count)
system.cpu.iew.dispNonSpecInsts                  8745                       # Number of dispatched non-speculative instructions (Count)
system.cpu.iew.iqFullEvents                       376                       # Number of times the IQ has become full, causing a stall (Count)
system.cpu.iew.lsqFullEvents                   135165                       # Number of times the LSQ has become full, causing a stall (Count)
system.cpu.iew.memOrderViolationEvents             31                       # Number of memory order violations (Count)
system.cpu.iew.predictedTakenIncorrect          62730                       # Number of branches that were predicted taken incorrectly (Count)
system.cpu.iew.predictedNotTakenIncorrect        52423                       # Number of branches that were predicted not taken incorrectly (Count)
system.cpu.iew.branchMispredicts               115153                       # Number of branch mispredicts detected at execute (Count)
system.cpu.iew.instsToCommit                 19478892                       # Cumulative count of insts sent to commit (Count)
system.cpu.iew.writebackCount                19463022                       # Cumulative count of insts written-back (Count)
system.cpu.iew.producerInst                   9260779                       # Number of instructions producing a value (Count)
[...]
system.mem_ctrls.dram.bwRead::total         169390574                       # Total read bandwidth from this memory ((Byte/Second))
system.mem_ctrls.dram.bwInstRead::cpu.inst      8811924                       # Instruction read bandwidth from this memory ((Byte/Second))
system.mem_ctrls.dram.bwInstRead::total       8811924                       # Instruction read bandwidth from this memory ((Byte/Second))
system.mem_ctrls.dram.bwWrite::writebacks     77421849                       # Write bandwidth from this memory ((Byte/Second))
system.mem_ctrls.dram.bwWrite::total         77421849                       # Write bandwidth from this memory ((Byte/Second))
system.mem_ctrls.dram.bwTotal::writebacks     77421849                       # Total bandwidth to/from this memory ((Byte/Second))
system.mem_ctrls.dram.bwTotal::cpu.inst       8811924                       # Total bandwidth to/from this memory ((Byte/Second))
system.mem_ctrls.dram.bwTotal::cpu.data     160578651                       # Total bandwidth to/from this memory ((Byte/Second))
system.mem_ctrls.dram.bwTotal::total        246812424                       # Total bandwidth to/from this memory ((Byte/Second))
system.mem_ctrls.dram.readBursts                12854                       # Number of DRAM read bursts (Count)
system.mem_ctrls.dram.writeBursts                6134                       # Number of DRAM write bursts (Count)
system.mem_ctrls.dram.perBankRdBursts::0          617                       # Per bank write bursts (Count)
system.mem_ctrls.dram.perBankRdBursts::1          536                       # Per bank write bursts (Count)
system.mem_ctrls.dram.perBankRdBursts::2          521                       # Per bank write bursts (Count)
system.mem_ctrls.dram.perBankRdBursts::3          703                       # Per bank write bursts (Count)
system.mem_ctrls.dram.perBankRdBursts::4          557                       # Per bank write bursts (Count)
system.mem_ctrls.dram.perBankRdBursts::5          697                       # Per bank write bursts (Count)
system.mem_ctrls.dram.perBankRdBursts::6          923                       # Per bank write bursts (Count)
system.mem_ctrls.dram.perBankRdBursts::7          986                       # Per bank write bursts (Count)
system.mem_ctrls.dram.perBankRdBursts::8          956                       # Per bank write bursts (Count)
system.mem_ctrls.dram.perBankRdBursts::9          923                       # Per bank write bursts (Count)
system.mem_ctrls.dram.perBankRdBursts::10          892                       # Per bank write bursts (Count)
system.mem_ctrls.dram.perBankRdBursts::11         1019                       # Per bank write bursts (Count)
system.mem_ctrls.dram.perBankRdBursts::12          956                       # Per bank write bursts (Count)
system.mem_ctrls.dram.perBankRdBursts::13          959                       # Per bank write bursts (Count)
system.mem_ctrls.dram.perBankRdBursts::14         1059                       # Per bank write bursts (Count)
system.mem_ctrls.dram.perBankRdBursts::15          550                       # Per bank write bursts (Count)
system.mem_ctrls.dram.perBankWrBursts::0          288                       # Per bank write bursts (Count)
system.mem_ctrls.dram.perBankWrBursts::1          267                       # Per bank write bursts (Count)
system.mem_ctrls.dram.perBankWrBursts::2          232                       # Per bank write bursts (Count)
system.mem_ctrls.dram.perBankWrBursts::3          336                       # Per bank write bursts (Count)
system.mem_ctrls.dram.perBankWrBursts::4          294                       # Per bank write bursts (Count)
system.mem_ctrls.dram.perBankWrBursts::5          416                       # Per bank write bursts (Count)
system.mem_ctrls.dram.perBankWrBursts::6          369                       # Per bank write bursts (Count)
system.mem_ctrls.dram.perBankWrBursts::7          520                       # Per bank write bursts (Count)
system.mem_ctrls.dram.perBankWrBursts::8          520                       # Per bank write bursts (Count)
system.mem_ctrls.dram.perBankWrBursts::9          518                       # Per bank write bursts (Count)
system.mem_ctrls.dram.perBankWrBursts::10          439                       # Per bank write bursts (Count)
system.mem_ctrls.dram.perBankWrBursts::11          436                       # Per bank write bursts (Count)
system.mem_ctrls.dram.perBankWrBursts::12          404                       # Per bank write bursts (Count)
system.mem_ctrls.dram.perBankWrBursts::13          409                       # Per bank write bursts (Count)
system.mem_ctrls.dram.perBankWrBursts::14          405                       # Per bank write bursts (Count)
system.mem_ctrls.dram.perBankWrBursts::15          281                       # Per bank write bursts (Count)
system.mem_ctrls.dram.totQLat               119580250                       # Total ticks spent queuing (Tick)
system.mem_ctrls.dram.totBusLat              64270000                       # Total ticks spent in databus transfers (Tick)
system.mem_ctrls.dram.totMemAccLat          360592750                       # Total ticks spent from burst creation until serviced by the DRAM (Tick)
system.mem_ctrls.dram.avgQLat                 9302.96                       # Average queueing delay per DRAM burst ((Tick/Count))
system.mem_ctrls.dram.avgBusLat               5000.00                       # Average bus latency per DRAM burst ((Tick/Count))
system.mem_ctrls.dram.avgMemAccLat           28052.96                       # Average memory access latency per DRAM burst ((Tick/Count))
system.mem_ctrls.dram.readRowHits               10269                       # Number of row buffer hits during reads (Count)
system.mem_ctrls.dram.writeRowHits               5392                       # Number of row buffer hits during writes (Count)
system.mem_ctrls.dram.readRowHitRate            79.89                       # Row buffer hit rate for reads (Ratio)
system.mem_ctrls.dram.writeRowHitRate           87.90                       # Row buffer hit rate for writes (Ratio)
system.mem_ctrls.dram.bytesPerActivate::samples         3314                       # Bytes accessed per row activation (Byte)
system.mem_ctrls.dram.bytesPerActivate::mean   365.614967                       # Bytes accessed per row activation (Byte)
system.mem_ctrls.dram.bytesPerActivate::gmean   241.535442                       # Bytes accessed per row activation (Byte)
system.mem_ctrls.dram.bytesPerActivate::stdev   327.238666                       # Bytes accessed per row activation (Byte)
system.mem_ctrls.dram.bytesPerActivate::0-127          642     19.37%     19.37% # Bytes accessed per row activation (Byte)
system.mem_ctrls.dram.bytesPerActivate::128-255         1070     32.29%     51.66% # Bytes accessed per row activation (Byte)
system.mem_ctrls.dram.bytesPerActivate::256-383          373     11.26%     62.91% # Bytes accessed per row activation (Byte)
system.mem_ctrls.dram.bytesPerActivate::384-511          430     12.98%     75.89% # Bytes accessed per row activation (Byte)
system.mem_ctrls.dram.bytesPerActivate::512-639          112      3.38%     79.27% # Bytes accessed per row activation (Byte)
system.mem_ctrls.dram.bytesPerActivate::640-767           86      2.60%     81.86% # Bytes accessed per row activation (Byte)
system.mem_ctrls.dram.bytesPerActivate::768-895           86      2.60%     84.46% # Bytes accessed per row activation (Byte)
system.mem_ctrls.dram.bytesPerActivate::896-1023           54      1.63%     86.09% # Bytes accessed per row activation (Byte)
system.mem_ctrls.dram.bytesPerActivate::1024-1151          461     13.91%    100.00% # Bytes accessed per row activation (Byte)
system.mem_ctrls.dram.bytesPerActivate::total         3314                       # Bytes accessed per row activation (Byte)
system.mem_ctrls.dram.bytesRead                822656                       # Total bytes read (Byte)
system.mem_ctrls.dram.bytesWritten             392576                       # Total bytes written (Byte)
system.mem_ctrls.dram.avgRdBW              168.303814                       # Average DRAM read bandwidth in MiBytes/s ((Byte/Second))
system.mem_ctrls.dram.avgWrBW               80.315512                       # Average DRAM write bandwidth in MiBytes/s ((Byte/Second))
system.mem_ctrls.dram.peakBW                 12800.00                       # Theoretical peak bandwidth in MiByte/s ((Byte/Second))
system.mem_ctrls.dram.busUtil                    1.94                       # Data bus utilization in percentage (Ratio)
system.mem_ctrls.dram.busUtilRead                1.31                       # Data bus utilization in percentage for reads (Ratio)
system.mem_ctrls.dram.busUtilWrite               0.63                       # Data bus utilization in percentage for writes (Ratio)
system.mem_ctrls.dram.pageHitRate               82.48                       # Row buffer hit rate, read and write combined (Ratio)
system.mem_ctrls.dram.power_state.pwrStateResidencyTicks::UNDEFINED   4887922500                       # Cumulative time (in ticks) in various power states (Tick)
system.mem_ctrls.dram.rank0.actEnergy         9617580                       # Energy for activate commands per rank (pJ) (Joule)
system.mem_ctrls.dram.rank0.preEnergy         5081505                       # Energy for precharge commands per rank (pJ) (Joule)
system.mem_ctrls.dram.rank0.readEnergy       39555600                       # Energy for read commands per rank (pJ) (Joule)
system.mem_ctrls.dram.rank0.writeEnergy      14208840                       # Energy for write commands per rank (pJ) (Joule)
system.mem_ctrls.dram.rank0.refreshEnergy 385379280.000000                       # Energy for refresh commands per rank (pJ) (Joule)
system.mem_ctrls.dram.rank0.actBackEnergy   1531194420                       # Energy for active background per rank (pJ) (Joule)
system.mem_ctrls.dram.rank0.preBackEnergy    587535360                       # Energy for precharge background per rank (pJ) (Joule)
system.mem_ctrls.dram.rank0.actPowerDownEnergy            0                       # Energy for active power-down per rank (pJ) (Joule)
system.mem_ctrls.dram.rank0.prePowerDownEnergy            0                       # Energy for precharge power-down per rank (pJ) (Joule)
system.mem_ctrls.dram.rank0.selfRefreshEnergy            0                       # Energy for self refresh per rank (pJ) (Joule)
system.mem_ctrls.dram.rank0.totalEnergy    2572572585                       # Total energy per rank (pJ) (Joule)
system.mem_ctrls.dram.rank0.averagePower   526.312065                       # Core power per rank (mW) (Watt)
system.mem_ctrls.dram.rank0.totalIdleTime            0                       # Total Idle time Per DRAM Rank (Tick)
system.mem_ctrls.dram.rank0.pwrStateTime::IDLE   1513346750                       # Time in different power states (Tick)
system.mem_ctrls.dram.rank0.pwrStateTime::REF    163020000                       # Time in different power states (Tick)
system.mem_ctrls.dram.rank0.pwrStateTime::SREF            0                       # Time in different power states (Tick)
system.mem_ctrls.dram.rank0.pwrStateTime::PRE_PDN            0                       # Time in different power states (Tick)
system.mem_ctrls.dram.rank0.pwrStateTime::ACT   3211555750                       # Time in different power states (Tick)
system.mem_ctrls.dram.rank0.pwrStateTime::ACT_PDN            0                       # Time in different power states (Tick)
system.mem_ctrls.dram.rank1.actEnergy        14130060                       # Energy for activate commands per rank (pJ) (Joule)
system.mem_ctrls.dram.rank1.preEnergy         7495125                       # Energy for precharge commands per rank (pJ) (Joule)
system.mem_ctrls.dram.rank1.readEnergy       52207680                       # Energy for read commands per rank (pJ) (Joule)
system.mem_ctrls.dram.rank1.writeEnergy      17810640                       # Energy for write commands per rank (pJ) (Joule)
system.mem_ctrls.dram.rank1.refreshEnergy 385379280.000000                       # Energy for refresh commands per rank (pJ) (Joule)
system.mem_ctrls.dram.rank1.actBackEnergy   1835957460                       # Energy for active background per rank (pJ) (Joule)
system.mem_ctrls.dram.rank1.preBackEnergy    330892800                       # Energy for precharge background per rank (pJ) (Joule)
system.mem_ctrls.dram.rank1.actPowerDownEnergy            0                       # Energy for active power-down per rank (pJ) (Joule)
system.mem_ctrls.dram.rank1.prePowerDownEnergy            0                       # Energy for precharge power-down per rank (pJ) (Joule)
system.mem_ctrls.dram.rank1.selfRefreshEnergy            0                       # Energy for self refresh per rank (pJ) (Joule)
system.mem_ctrls.dram.rank1.totalEnergy    2643873045                       # Total energy per rank (pJ) (Joule)
system.mem_ctrls.dram.rank1.averagePower   540.899134                       # Core power per rank (mW) (Watt)
system.mem_ctrls.dram.rank1.totalIdleTime            0                       # Total Idle time Per DRAM Rank (Tick)
system.mem_ctrls.dram.rank1.pwrStateTime::IDLE    842225000                       # Time in different power states (Tick)
system.mem_ctrls.dram.rank1.pwrStateTime::REF    163020000                       # Time in different power states (Tick)
system.mem_ctrls.dram.rank1.pwrStateTime::SREF            0                       # Time in different power states (Tick)
system.mem_ctrls.dram.rank1.pwrStateTime::PRE_PDN            0                       # Time in different power states (Tick)
system.mem_ctrls.dram.rank1.pwrStateTime::ACT   3882677500                       # Time in different power states (Tick)
system.mem_ctrls.dram.rank1.pwrStateTime::ACT_PDN            0                       # Time in different power states (Tick)
system.mem_ctrls.power_state.pwrStateResidencyTicks::UNDEFINED   4887922500                       # Cumulative time (in ticks) in various power states (Tick)
system.membus.transDist::ReadResp                8621                       # Transaction distribution (Count)
system.membus.transDist::WritebackDirty          5913                       # Transaction distribution (Count)
system.membus.transDist::WritebackClean           243                       # Transaction distribution (Count)
system.membus.transDist::CleanEvict              5382                       # Transaction distribution (Count)
system.membus.transDist::ReadExReq               4316                       # Transaction distribution (Count)
system.membus.transDist::ReadExResp              4316                       # Transaction distribution (Count)
system.membus.transDist::ReadCleanReq             675                       # Transaction distribution (Count)
system.membus.transDist::ReadSharedReq           7948                       # Transaction distribution (Count)
system.membus.transDist::InvalidateReq             55                       # Transaction distribution (Count)
system.membus.pktCount_system.cpu.icache.mem_side_port::system.mem_ctrls.port         1591                       # Packet count per connected requestor and responder (Count)
system.membus.pktCount_system.cpu.dcache.mem_side_port::system.mem_ctrls.port        35878                       # Packet count per connected requestor and responder (Count)
system.membus.pktCount::total                   37469                       # Packet count per connected requestor and responder (Count)
system.membus.pktSize_system.cpu.icache.mem_side_port::system.mem_ctrls.port        58624                       # Cumulative packet size per connected requestor and responder (Byte)
system.membus.pktSize_system.cpu.dcache.mem_side_port::system.mem_ctrls.port      1163328                       # Cumulative packet size per connected requestor and responder (Byte)
system.membus.pktSize::total                  1221952                       # Cumulative packet size per connected requestor and responder (Byte)
system.membus.snoops                                0                       # Total snoops (Count)
system.membus.snoopTraffic                          0                       # Total snoop traffic (Byte)
system.membus.snoopFanout::samples              12994                       # Request fanout histogram (Count)
system.membus.snoopFanout::mean                     0                       # Request fanout histogram (Count)
system.membus.snoopFanout::stdev                    0                       # Request fanout histogram (Count)
system.membus.snoopFanout::underflows               0      0.00%      0.00% # Request fanout histogram (Count)
system.membus.snoopFanout::0                    12994    100.00%    100.00% # Request fanout histogram (Count)
system.membus.snoopFanout::1                        0      0.00%    100.00% # Request fanout histogram (Count)
system.membus.snoopFanout::2                        0      0.00%    100.00% # Request fanout histogram (Count)
system.membus.snoopFanout::3                        0      0.00%    100.00% # Request fanout histogram (Count)
system.membus.snoopFanout::4                        0      0.00%    100.00% # Request fanout histogram (Count)
system.membus.snoopFanout::overflows                0      0.00%    100.00% # Request fanout histogram (Count)
system.membus.snoopFanout::min_value                0                       # Request fanout histogram (Count)
system.membus.snoopFanout::max_value                0                       # Request fanout histogram (Count)
system.membus.snoopFanout::total                12994                       # Request fanout histogram (Count)
system.membus.power_state.pwrStateResidencyTicks::UNDEFINED   4887922500                       # Cumulative time (in ticks) in various power states (Tick)
system.membus.reqLayer0.occupancy            51732000                       # Layer occupancy (ticks) (Tick)
system.membus.reqLayer0.utilization               0.0                       # Layer utilization (Ratio)
system.membus.respLayer1.occupancy            3563250                       # Layer occupancy (ticks) (Tick)
system.membus.respLayer1.utilization              0.0                       # Layer utilization (Ratio)
system.membus.respLayer2.occupancy           64754000                       # Layer occupancy (ticks) (Tick)
system.membus.respLayer2.utilization              0.0                       # Layer utilization (Ratio)
system.membus.snoop_filter.totRequests          24532                       # Total number of requests made to the snoop filter. (Count)
system.membus.snoop_filter.hitSingleRequests        11538                       # Number of requests hitting in the snoop filter with a single holder of the requested data. (Count)
system.membus.snoop_filter.hitMultiRequests            0                       # Number of requests hitting in the snoop filter with multiple (>1) holders of the requested data. (Count)
system.membus.snoop_filter.totSnoops                0                       # Total number of snoops made to the snoop filter. (Count)
system.membus.snoop_filter.hitSingleSnoops            0                       # Number of snoops hitting in the snoop filter with a single holder of the requested data. (Count)
system.membus.snoop_filter.hitMultiSnoops            0                       # Number of snoops hitting in the snoop filter with multiple (>1) holders of the requested data. (Count)
system.voltage_domain.voltage                       1                       # Voltage in Volts (Volt)
system.workload.inst.arm                            0                       # number of arm instructions executed (Count)
system.workload.inst.quiesce                        0                       # number of quiesce instructions executed (Count)

---------- End Simulation Statistics   ----------
