
---------- Begin Simulation Statistics ----------
simSeconds                                   0.017470                       # Number of seconds simulated (Second)
simTicks                                  17469843000                       # Number of ticks simulated (Tick)
finalTick                                 17469843000                       # Number of ticks from beginning of simulation (restored from checkpoints and never reset) (Tick)
simFreq                                  1000000000000                       # The number of ticks per simulated second ((Tick/Second))
hostSeconds                                     45.23                       # Real time elapsed on the host (Second)
hostTickRate                                386267013                       # The number of ticks simulated per host second (ticks/s) ((Tick/Second))
hostMemory                                     664888                       # Number of bytes of host memory used (Byte)
simInsts                                     16640805                       # Number of instructions simulated (Count)
simOps                                       33764884                       # Number of ops (including micro ops) simulated (Count)
hostInstRate                                   367936                       # Simulator instruction rate (inst/s) ((Count/Second))
hostOpRate                                     746558                       # Simulator op (including micro ops) rate (op/s) ((Count/Second))
system.clk_domain.clock                          1000                       # Clock period in ticks (Tick)
system.cpu.numCycles                         34939687                       # Number of cpu cycles simulated (Cycle)
system.cpu.numWorkItemsStarted                      0                       # Number of work items this cpu started (Count)
system.cpu.numWorkItemsCompleted                    0                       # Number of work items this cpu completed (Count)
system.cpu.instsAdded                        35895654                       # Number of instructions added to the IQ (excludes non-spec) (Count)
system.cpu.nonSpecInstsAdded                       58                       # Number of non-speculative instructions added to the IQ (Count)
system.cpu.instsIssued                       44405897                       # Number of instructions issued (Count)
system.cpu.squashedInstsIssued                  44847                       # Number of squashed instructions issued (Count)
system.cpu.squashedInstsExamined              2130813                       # Number of squashed instructions iterated over during squash; mainly for profiling (Count)
system.cpu.squashedOperandsExamined           3969811                       # Number of squashed operands that are examined and possibly removed from graph (Count)
system.cpu.squashedNonSpecRemoved                  39                       # Number of squashed non-spec instructions that were removed (Count)
system.cpu.numIssuedDist::samples            34888147                       # Number of insts issued each cycle (Count)
system.cpu.numIssuedDist::mean               1.272808                       # Number of insts issued each cycle (Count)
system.cpu.numIssuedDist::stdev              1.949235                       # Number of insts issued each cycle (Count)
system.cpu.numIssuedDist::underflows                0      0.00%      0.00% # Number of insts issued each cycle (Count)
system.cpu.numIssuedDist::0                  20263186     58.08%     58.08% # Number of insts issued each cycle (Count)
system.cpu.numIssuedDist::1                   4846771     13.89%     71.97% # Number of insts issued each cycle (Count)
system.cpu.numIssuedDist::2                   2071904      5.94%     77.91% # Number of insts issued each cycle (Count)
system.cpu.numIssuedDist::3                   2111843      6.05%     83.96% # Number of insts issued each cycle (Count)
system.cpu.numIssuedDist::4                   1605305      4.60%     88.57% # Number of insts issued each cycle (Count)
system.cpu.numIssuedDist::5                   1998369      5.73%     94.29% # Number of insts issued each cycle (Count)
system.cpu.numIssuedDist::6                   1387710      3.98%     98.27% # Number of insts issued each cycle (Count)
system.cpu.numIssuedDist::7                    484008      1.39%     99.66% # Number of insts issued each cycle (Count)
system.cpu.numIssuedDist::8                    119051      0.34%    100.00% # Number of insts issued each cycle (Count)
system.cpu.numIssuedDist::overflows                 0      0.00%    100.00% # Number of insts issued each cycle (Count)
system.cpu.numIssuedDist::min_value                 0                       # Number of insts issued each cycle (Count)
system.cpu.numIssuedDist::max_value                 8                       # Number of insts issued each cycle (Count)
system.cpu.numIssuedDist::total              34888147                       # Number of insts issued each cycle (Count)
system.cpu.statFuBusy::No_OpClass                   0      0.00%      0.00% # attempts to use FU when none available (Count)
system.cpu.statFuBusy::IntAlu                  830218     28.65%     28.65% # attempts to use FU when none available (Count)
system.cpu.statFuBusy::IntMult                      0      0.00%     28.65% # attempts to use FU when none available (Count)
system.cpu.statFuBusy::IntDiv                       0      0.00%     28.65% # attempts to use FU when none available (Count)
system.cpu.statFuBusy::FloatAdd                     0      0.00%     28.65% # attempts to use FU when none available (Count)
system.cpu.statFuBusy::FloatCmp                     0      0.00%     28.65% # attempts to use FU when none available (Count)
system.cpu.statFuBusy::FloatCvt                     0      0.00%     28.65% # attempts to use FU when none available (Count)
system.cpu.statFuBusy::FloatMult                    0      0.00%     28.65% # attempts to use FU when none available (Count)
system.cpu.statFuBusy::FloatMultAcc                 0      0.00%     28.65% # attempts to use FU when none available (Count)
system.cpu.statFuBusy::FloatDiv                     0      0.00%     28.65% # attempts to use FU when none available (Count)
system.cpu.statFuBusy::FloatMisc                    0      0.00%     28.65% # attempts to use FU when none available (Count)
system.cpu.statFuBusy::FloatSqrt                    0      0.00%     28.65% # attempts to use FU when none available (Count)
system.cpu.statFuBusy::SimdAdd                      0      0.00%     28.65% # attempts to use FU when none available (Count)
system.cpu.statFuBusy::SimdAddAcc                   0      0.00%     28.65% # attempts to use FU when none available (Count)
system.cpu.statFuBusy::SimdAlu                  14112      0.49%     29.13% # attempts to use FU when none available (Count)
system.cpu.statFuBusy::SimdCmp                      0      0.00%     29.13% # attempts to use FU when none available (Count)
system.cpu.statFuBusy::SimdCvt                    165      0.01%     29.14% # attempts to use FU when none available (Count)
system.cpu.statFuBusy::SimdMisc                  4658      0.16%     29.30% # attempts to use FU when none available (Count)
system.cpu.statFuBusy::SimdMult                     0      0.00%     29.30% # attempts to use FU when none available (Count)
system.cpu.statFuBusy::SimdMultAcc                  0      0.00%     29.30% # attempts to use FU when none available (Count)
system.cpu.statFuBusy::SimdShift                    0      0.00%     29.30% # attempts to use FU when none available (Count)
system.cpu.statFuBusy::SimdShiftAcc                 0      0.00%     29.30% # attempts to use FU when none available (Count)
system.cpu.statFuBusy::SimdDiv                      0      0.00%     29.30% # attempts to use FU when none available (Count)
system.cpu.statFuBusy::SimdSqrt                     0      0.00%     29.30% # attempts to use FU when none available (Count)
system.cpu.statFuBusy::SimdFloatAdd                 0      0.00%     29.30% # attempts to use FU when none available (Count)
system.cpu.statFuBusy::SimdFloatAlu                 0      0.00%     29.30% # attempts to use FU when none available (Count)
system.cpu.statFuBusy::SimdFloatCmp                 0      0.00%     29.30% # attempts to use FU when none available (Count)
system.cpu.statFuBusy::SimdFloatCvt                 0      0.00%     29.30% # attempts to use FU when none available (Count)
system.cpu.statFuBusy::SimdFloatDiv                 0      0.00%     29.30% # attempts to use FU when none available (Count)
system.cpu.statFuBusy::SimdFloatMisc                0      0.00%     29.30% # attempts to use FU when none available (Count)
system.cpu.statFuBusy::SimdFloatMult                0      0.00%     29.30% # attempts to use FU when none available (Count)
system.cpu.statFuBusy::SimdFloatMultAcc             0      0.00%     29.30% # attempts to use FU when none available (Count)
system.cpu.statFuBusy::SimdFloatSqrt                0      0.00%     29.30% # attempts to use FU when none available (Count)
system.cpu.statFuBusy::SimdReduceAdd                0      0.00%     29.30% # attempts to use FU when none available (Count)
system.cpu.statFuBusy::SimdReduceAlu                0      0.00%     29.30% # attempts to use FU when none available (Count)
system.cpu.statFuBusy::SimdReduceCmp                0      0.00%     29.30% # attempts to use FU when none available (Count)
system.cpu.statFuBusy::SimdFloatReduceAdd            0      0.00%     29.30% # attempts to use FU when none available (Count)
system.cpu.statFuBusy::SimdFloatReduceCmp            0      0.00%     29.30% # attempts to use FU when none available (Count)
system.cpu.statFuBusy::SimdAes                      0      0.00%     29.30% # attempts to use FU when none available (Count)
system.cpu.statFuBusy::SimdAesMix                   0      0.00%     29.30% # attempts to use FU when none available (Count)
system.cpu.statFuBusy::SimdSha1Hash                 0      0.00%     29.30% # attempts to use FU when none available (Count)
system.cpu.statFuBusy::SimdSha1Hash2                0      0.00%     29.30% # attempts to use FU when none available (Count)
system.cpu.statFuBusy::SimdSha256Hash               0      0.00%     29.30% # attempts to use FU when none available (Count)
system.cpu.statFuBusy::SimdSha256Hash2              0      0.00%     29.30% # attempts to use FU when none available (Count)
system.cpu.statFuBusy::SimdShaSigma2                0      0.00%     29.30% # attempts to use FU when none available (Count)
system.cpu.statFuBusy::SimdShaSigma3                0      0.00%     29.30% # attempts to use FU when none available (Count)
system.cpu.statFuBusy::SimdPredAlu                  0      0.00%     29.30% # attempts to use FU when none available (Count)
system.cpu.statFuBusy::MemRead                   3600      0.12%     29.42% # attempts to use FU when none available (Count)
system.cpu.statFuBusy::MemWrite                  3495      0.12%     29.54% # attempts to use FU when none available (Count)
system.cpu.statFuBusy::FloatMemRead           2041755     70.45%     99.99% # attempts to use FU when none available (Count)
system.cpu.statFuBusy::FloatMemWrite              196      0.01%    100.00% # attempts to use FU when none available (Count)
system.cpu.statFuBusy::IprAccess                    0      0.00%    100.00% # attempts to use FU when none available (Count)
system.cpu.statFuBusy::InstPrefetch                 0      0.00%    100.00% # attempts to use FU when none available (Count)
system.cpu.statIssuedInstType_0::No_OpClass       355794      0.80%      0.80% # Number of instructions issued per FU type, per thread (Count)
system.cpu.statIssuedInstType_0::IntAlu      26794255     60.34%     61.14% # Number of instructions issued per FU type, per thread (Count)
system.cpu.statIssuedInstType_0::IntMult         3425      0.01%     61.15% # Number of instructions issued per FU type, per thread (Count)
system.cpu.statIssuedInstType_0::IntDiv        305389      0.69%     61.84% # Number of instructions issued per FU type, per thread (Count)
system.cpu.statIssuedInstType_0::FloatAdd       608599      1.37%     63.21% # Number of instructions issued per FU type, per thread (Count)
system.cpu.statIssuedInstType_0::FloatCmp            0      0.00%     63.21% # Number of instructions issued per FU type, per thread (Count)
system.cpu.statIssuedInstType_0::FloatCvt            0      0.00%     63.21% # Number of instructions issued per FU type, per thread (Count)
system.cpu.statIssuedInstType_0::FloatMult            0      0.00%     63.21% # Number of instructions issued per FU type, per thread (Count)
system.cpu.statIssuedInstType_0::FloatMultAcc            0      0.00%     63.21% # Number of instructions issued per FU type, per thread (Count)
system.cpu.statIssuedInstType_0::FloatDiv            0      0.00%     63.21% # Number of instructions issued per FU type, per thread (Count)
system.cpu.statIssuedInstType_0::FloatMisc            0      0.00%     63.21% # Number of instructions issued per FU type, per thread (Count)
system.cpu.statIssuedInstType_0::FloatSqrt            0      0.00%     63.21% # Number of instructions issued per FU type, per thread (Count)
system.cpu.statIssuedInstType_0::SimdAdd            0      0.00%     63.21% # Number of instructions issued per FU type, per thread (Count)
system.cpu.statIssuedInstType_0::SimdAddAcc            0      0.00%     63.21% # Number of instructions issued per FU type, per thread (Count)
system.cpu.statIssuedInstType_0::SimdAlu       136958      0.31%     63.52% # Number of instructions issued per FU type, per thread (Count)
system.cpu.statIssuedInstType_0::SimdCmp          198      0.00%     63.52% # Number of instructions issued per FU type, per thread (Count)
system.cpu.statIssuedInstType_0::SimdCvt        84652      0.19%     63.71% # Number of instructions issued per FU type, per thread (Count)
system.cpu.statIssuedInstType_0::SimdMisc        94941      0.21%     63.92% # Number of instructions issued per FU type, per thread (Count)
system.cpu.statIssuedInstType_0::SimdMult            0      0.00%     63.92% # Number of instructions issued per FU type, per thread (Count)
system.cpu.statIssuedInstType_0::SimdMultAcc            0      0.00%     63.92% # Number of instructions issued per FU type, per thread (Count)
system.cpu.statIssuedInstType_0::SimdShift            0      0.00%     63.92% # Number of instructions issued per FU type, per thread (Count)
system.cpu.statIssuedInstType_0::SimdShiftAcc            0      0.00%     63.92% # Number of instructions issued per FU type, per thread (Count)
system.cpu.statIssuedInstType_0::SimdDiv            0      0.00%     63.92% # Number of instructions issued per FU type, per thread (Count)
system.cpu.statIssuedInstType_0::SimdSqrt            0      0.00%     63.92% # Number of instructions issued per FU type, per thread (Count)
system.cpu.statIssuedInstType_0::SimdFloatAdd      1155655      2.60%     66.52% # Number of instructions issued per FU type, per thread (Count)
system.cpu.statIssuedInstType_0::SimdFloatAlu            0      0.00%     66.52% # Number of instructions issued per FU type, per thread (Count)
system.cpu.statIssuedInstType_0::SimdFloatCmp       569268      1.28%     67.80% # Number of instructions issued per FU type, per thread (Count)
system.cpu.statIssuedInstType_0::SimdFloatCvt         8820      0.02%     67.82% # Number of instructions issued per FU type, per thread (Count)
system.cpu.statIssuedInstType_0::SimdFloatDiv            0      0.00%     67.82% # Number of instructions issued per FU type, per thread (Count)
system.cpu.statIssuedInstType_0::SimdFloatMisc            0      0.00%     67.82% # Number of instructions issued per FU type, per thread (Count)
system.cpu.statIssuedInstType_0::SimdFloatMult            0      0.00%     67.82% # Number of instructions issued per FU type, per thread (Count)
system.cpu.statIssuedInstType_0::SimdFloatMultAcc            0      0.00%     67.82% # Number of instructions issued per FU type, per thread (Count)
system.cpu.statIssuedInstType_0::SimdFloatSqrt            0      0.00%     67.82% # Number of instructions issued per FU type, per thread (Count)
system.cpu.statIssuedInstType_0::SimdReduceAdd            0      0.00%     67.82% # Number of instructions issued per FU type, per thread (Count)
system.cpu.statIssuedInstType_0::SimdReduceAlu            0      0.00%     67.82% # Number of instructions issued per FU type, per thread (Count)
system.cpu.statIssuedInstType_0::SimdReduceCmp            0      0.00%     67.82% # Number of instructions issued per FU type, per thread (Count)
system.cpu.statIssuedInstType_0::SimdFloatReduceAdd            0      0.00%     67.82% # Number of instructions issued per FU type, per thread (Count)
system.cpu.statIssuedInstType_0::SimdFloatReduceCmp            0      0.00%     67.82% # Number of instructions issued per FU type, per thread (Count)
system.cpu.statIssuedInstType_0::SimdAes            0      0.00%     67.82% # Number of instructions issued per FU type, per thread (Count)
system.cpu.statIssuedInstType_0::SimdAesMix            0      0.00%     67.82% # Number of instructions issued per FU type, per thread (Count)
system.cpu.statIssuedInstType_0::SimdSha1Hash            0      0.00%     67.82% # Number of instructions issued per FU type, per thread (Count)
system.cpu.statIssuedInstType_0::SimdSha1Hash2            0      0.00%     67.82% # Number of instructions issued per FU type, per thread (Count)
system.cpu.statIssuedInstType_0::SimdSha256Hash            0      0.00%     67.82% # Number of instructions issued per FU type, per thread (Count)
system.cpu.statIssuedInstType_0::SimdSha256Hash2            0      0.00%     67.82% # Number of instructions issued per FU type, per thread (Count)
system.cpu.statIssuedInstType_0::SimdShaSigma2            0      0.00%     67.82% # Number of instructions issued per FU type, per thread (Count)
system.cpu.statIssuedInstType_0::SimdShaSigma3            0      0.00%     67.82% # Number of instructions issued per FU type, per thread (Count)
system.cpu.statIssuedInstType_0::SimdPredAlu            0      0.00%     67.82% # Number of instructions issued per FU type, per thread (Count)
system.cpu.statIssuedInstType_0::MemRead      2147239      4.84%     72.66% # Number of instructions issued per FU type, per thread (Count)
system.cpu.statIssuedInstType_0::MemWrite      1446717      3.26%     75.92% # Number of instructions issued per FU type, per thread (Count)
system.cpu.statIssuedInstType_0::FloatMemRead     10655341     24.00%     99.91% # Number of instructions issued per FU type, per thread (Count)
system.cpu.statIssuedInstType_0::FloatMemWrite        38646      0.09%    100.00% # Number of instructions issued per FU type, per thread (Count)
system.cpu.statIssuedInstType_0::IprAccess            0      0.00%    100.00% # Number of instructions issued per FU type, per thread (Count)
system.cpu.statIssuedInstType_0::InstPrefetch            0      0.00%    100.00% # Number of instructions issued per FU type, per thread (Count)
system.cpu.statIssuedInstType_0::total       44405897                       # Number of instructions issued per FU type, per thread (Count)
system.cpu.issueRate                         1.270930                       # Inst issue rate ((Count/Cycle))
system.cpu.fuBusy                             2898199                       # FU busy when requested (Count)
system.cpu.fuBusyRate                        0.065266                       # FU busy rate (busy events/executed inst) ((Count/Count))
system.cpu.intInstQueueReads                 95593034                       # Number of integer instruction queue reads (Count)
system.cpu.intInstQueueWrites                32887176                       # Number of integer instruction queue writes (Count)
system.cpu.intInstQueueWakeupAccesses        29702204                       # Number of integer instruction queue wakeup accesses (Count)
system.cpu.fpInstQueueReads                  31049953                       # Number of floating instruction queue reads (Count)
system.cpu.fpInstQueueWrites                  5139557                       # Number of floating instruction queue writes (Count)
system.cpu.fpInstQueueWakeupAccesses          5100711                       # Number of floating instruction queue wakeup accesses (Count)
system.cpu.vecInstQueueReads                        0                       # Number of vector instruction queue reads (Count)
system.cpu.vecInstQueueWrites                       0                       # Number of vector instruction queue writes (Count)
system.cpu.vecInstQueueWakeupAccesses               0                       # Number of vector instruction queue wakeup accesses (Count)
system.cpu.intAluAccesses                    30394456                       # Number of integer alu accesses (Count)
system.cpu.fpAluAccesses                     16553846                       # Number of floating point alu accesses (Count)
system.cpu.vecAluAccesses                           0                       # Number of vector alu accesses (Count)
system.cpu.numInsts                          44220752                       # Number of executed instructions (Count)
system.cpu.numLoadInsts                      12765519                       # Number of load instructions executed (Count)
system.cpu.numSquashedInsts                    185145                       # Number of squashed instructions skipped in execute (Count)
system.cpu.numSwp                                   0                       # Number of swp insts executed (Count)
system.cpu.numNop                                   0                       # Number of nop insts executed (Count)
system.cpu.numRefs                           14235891                       # Number of memory reference insts executed (Count)
system.cpu.numBranches                        3834834                       # Number of branches executed (Count)
system.cpu.numStoreInsts                      1470372                       # Number of stores executed (Count)
system.cpu.numRate                           1.265631                       # Inst execution rate ((Count/Cycle))
system.cpu.timesIdled                             788                       # Number of times that the entire CPU went into an idle state and unscheduled itself (Count)
system.cpu.idleCycles                           51540                       # Total number of cycles that the CPU has spent unscheduled due to idling (Cycle)
system.cpu.committedInsts                    16640805                       # Number of Instructions Simulated (Count)
system.cpu.committedOps                      33764884                       # Number of Ops (including micro ops) Simulated (Count)
system.cpu.cpi                               2.099639                       # CPI: Cycles Per Instruction ((Cycle/Count))
system.cpu.totalCpi                          2.099639                       # CPI: Total CPI of All Threads ((Cycle/Count))
system.cpu.ipc                               0.476272                       # IPC: Instructions Per Cycle ((Count/Cycle))
system.cpu.totalIpc                          0.476272                       # IPC: Total IPC of All Threads ((Count/Cycle))
system.cpu.intRegfileReads                   65293173                       # Number of integer regfile reads (Count)
system.cpu.intRegfileWrites                  24776849                       # Number of integer regfile writes (Count)
system.cpu.fpRegfileReads                     8136305                       # Number of floating regfile reads (Count)
system.cpu.fpRegfileWrites                    4970148                       # Number of floating regfile writes (Count)
system.cpu.ccRegfileReads                    21087312                       # number of cc regfile reads (Count)
system.cpu.ccRegfileWrites                   11932651                       # number of cc regfile writes (Count)
system.cpu.miscRegfileReads                  20590871                       # number of misc regfile reads (Count)
system.cpu.MemDepUnit__0.insertedLoads        3425164                       # Number of loads inserted to the mem dependence unit. (Count)
system.cpu.MemDepUnit__0.insertedStores       1507793                       # Number of stores inserted to the mem dependence unit. (Count)
system.cpu.MemDepUnit__0.conflictingLoads        79006                       # Number of conflicting loads. (Count)
system.cpu.MemDepUnit__0.conflictingStores        24734                       # Number of conflicting stores. (Count)
system.cpu.MemDepUnit__1.insertedLoads              0                       # Number of loads inserted to the mem dependence unit. (Count)
system.cpu.MemDepUnit__1.insertedStores             0                       # Number of stores inserted to the mem dependence unit. (Count)
system.cpu.MemDepUnit__1.conflictingLoads            0                       # Number of conflicting loads. (Count)
system.cpu.MemDepUnit__1.conflictingStores            0                       # Number of conflicting stores. (Count)
system.cpu.MemDepUnit__2.insertedLoads              0                       # Number of loads inserted to the mem dependence unit. (Count)
system.cpu.MemDepUnit__2.insertedStores             0                       # Number of stores inserted to the mem dependence unit. (Count)
system.cpu.MemDepUnit__2.conflictingLoads            0                       # Number of conflicting loads. (Count)
system.cpu.MemDepUnit__2.conflictingStores            0                       # Number of conflicting stores. (Count)
system.cpu.MemDepUnit__3.insertedLoads              0                       # Number of loads inserted to the mem dependence unit. (Count)
system.cpu.MemDepUnit__3.insertedStores             0                       # Number of stores inserted to the mem dependence unit. (Count)
system.cpu.MemDepUnit__3.conflictingLoads            0                       # Number of conflicting loads. (Count)
system.cpu.MemDepUnit__3.conflictingStores            0                       # Number of conflicting stores. (Count)
system.cpu.branchPred.lookups                 4454635                       # Number of BP lookups (Count)
system.cpu.branchPred.condPredicted           3983724                       # Number of conditional branches predicted (Count)
system.cpu.branchPred.condIncorrect             78160                       # Number of conditional branches incorrect (Count)
system.cpu.branchPred.BTBLookups              3092178                       # Number of BTB lookups (Count)
system.cpu.branchPred.BTBHits                 3047926                       # Number of BTB hits (Count)
system.cpu.branchPred.BTBHitRatio            0.985689                       # BTB Hit Ratio (Ratio)
system.cpu.branchPred.RASUsed                  149438                       # Number of times the RAS was used to get a target. (Count)
system.cpu.branchPred.RASIncorrect                  6                       # Number of incorrect RAS predictions. (Count)
system.cpu.branchPred.indirectLookups           54113                       # Number of indirect predictor lookups. (Count)
system.cpu.branchPred.indirectHits              53151                       # Number of indirect target hits. (Count)
system.cpu.branchPred.indirectMisses              962                       # Number of indirect misses. (Count)
system.cpu.branchPred.indirectMispredicted          179                       # Number of mispredicted indirect branches. (Count)
system.cpu.commit.commitSquashedInsts         2121399                       # The number of squashed insts skipped by commit (Count)
system.cpu.commit.commitNonSpecStalls              18                       # The number of times commit has been forced to stall to communicate backwards (Count)
system.cpu.commit.branchMispredicts             77831                       # The number of times a branch was mispredicted (Count)
system.cpu.commit.numCommittedDist::samples     34583914                       # Number of insts commited each cycle (Count)
system.cpu.commit.numCommittedDist::mean     0.976318                       # Number of insts commited each cycle (Count)
system.cpu.commit.numCommittedDist::stdev     2.268618                       # Number of insts commited each cycle (Count)
system.cpu.commit.numCommittedDist::underflows            0      0.00%      0.00% # Number of insts commited each cycle (Count)
system.cpu.commit.numCommittedDist::0        26775992     77.42%     77.42% # Number of insts commited each cycle (Count)
system.cpu.commit.numCommittedDist::1         2071484      5.99%     83.41% # Number of insts commited each cycle (Count)
system.cpu.commit.numCommittedDist::2         1135184      3.28%     86.70% # Number of insts commited each cycle (Count)
system.cpu.commit.numCommittedDist::3          639623      1.85%     88.54% # Number of insts commited each cycle (Count)
system.cpu.commit.numCommittedDist::4          308015      0.89%     89.44% # Number of insts commited each cycle (Count)
system.cpu.commit.numCommittedDist::5          669797      1.94%     91.37% # Number of insts commited each cycle (Count)
system.cpu.commit.numCommittedDist::6           80422      0.23%     91.60% # Number of insts commited each cycle (Count)
system.cpu.commit.numCommittedDist::7          786590      2.27%     93.88% # Number of insts commited each cycle (Count)
system.cpu.commit.numCommittedDist::8         2116807      6.12%    100.00% # Number of insts commited each cycle (Count)
system.cpu.commit.numCommittedDist::overflows            0      0.00%    100.00% # Number of insts commited each cycle (Count)
system.cpu.commit.numCommittedDist::min_value            0                       # Number of insts commited each cycle (Count)
system.cpu.commit.numCommittedDist::max_value            8                       # Number of insts commited each cycle (Count)
system.cpu.commit.numCommittedDist::total     34583914                       # Number of insts commited each cycle (Count)
system.cpu.commit.instsCommitted             16640805                       # Number of instructions committed (Count)
system.cpu.commit.opsCommitted               33764884                       # Number of ops (including micro ops) committed (Count)
system.cpu.commit.memRefs                     4726504                       # Number of memory references committed (Count)
system.cpu.commit.loads                       3301364                       # Number of loads committed (Count)
system.cpu.commit.amos                              0                       # Number of atomic instructions committed (Count)
system.cpu.commit.membars                          12                       # Number of memory barriers committed (Count)
system.cpu.commit.branches                    3732316                       # Number of branches committed (Count)
system.cpu.commit.vectorInstructions                0                       # Number of committed Vector instructions. (Count)
system.cpu.commit.floating                    5098067                       # Number of committed floating point instructions. (Count)
system.cpu.commit.integer                    29054172                       # Number of committed integer instructions. (Count)
system.cpu.commit.functionCalls                132671                       # Number of function calls committed. (Count)
system.cpu.commit.committedInstType_0::No_OpClass       348373      1.03%      1.03% # Class of committed instruction (Count)
system.cpu.commit.committedInstType_0::IntAlu     25750640     76.26%     77.30% # Class of committed instruction (Count)
system.cpu.commit.committedInstType_0::IntMult         3370      0.01%     77.31% # Class of committed instruction (Count)
system.cpu.commit.committedInstType_0::IntDiv       281844      0.83%     78.14% # Class of committed instruction (Count)
system.cpu.commit.committedInstType_0::FloatAdd       604515      1.79%     79.93% # Class of committed instruction (Count)
system.cpu.commit.committedInstType_0::FloatCmp            0      0.00%     79.93% # Class of committed instruction (Count)
system.cpu.commit.committedInstType_0::FloatCvt            0      0.00%     79.93% # Class of committed instruction (Count)
system.cpu.commit.committedInstType_0::FloatMult            0      0.00%     79.93% # Class of committed instruction (Count)
system.cpu.commit.committedInstType_0::FloatMultAcc            0      0.00%     79.93% # Class of committed instruction (Count)
system.cpu.commit.committedInstType_0::FloatDiv            0      0.00%     79.93% # Class of committed instruction (Count)
system.cpu.commit.committedInstType_0::FloatMisc            0      0.00%     79.93% # Class of committed instruction (Count)
system.cpu.commit.committedInstType_0::FloatSqrt            0      0.00%     79.93% # Class of committed instruction (Count)
system.cpu.commit.committedInstType_0::SimdAdd            0      0.00%     79.93% # Class of committed instruction (Count)
system.cpu.commit.committedInstType_0::SimdAddAcc            0      0.00%     79.93% # Class of committed instruction (Count)
system.cpu.commit.committedInstType_0::SimdAlu       136148      0.40%     80.33% # Class of committed instruction (Count)
system.cpu.commit.committedInstType_0::SimdCmp          198      0.00%     80.34% # Class of committed instruction (Count)
system.cpu.commit.committedInstType_0::SimdCvt        84636      0.25%     80.59% # Class of committed instruction (Count)
system.cpu.commit.committedInstType_0::SimdMisc        94927      0.28%     80.87% # Class of committed instruction (Count)
system.cpu.commit.committedInstType_0::SimdMult            0      0.00%     80.87% # Class of committed instruction (Count)
system.cpu.commit.committedInstType_0::SimdMultAcc            0      0.00%     80.87% # Class of committed instruction (Count)
system.cpu.commit.committedInstType_0::SimdShift            0      0.00%     80.87% # Class of committed instruction (Count)
system.cpu.commit.committedInstType_0::SimdShiftAcc            0      0.00%     80.87% # Class of committed instruction (Count)
system.cpu.commit.committedInstType_0::SimdDiv            0      0.00%     80.87% # Class of committed instruction (Count)
system.cpu.commit.committedInstType_0::SimdSqrt            0      0.00%     80.87% # Class of committed instruction (Count)
system.cpu.commit.committedInstType_0::SimdFloatAdd      1155641      3.42%     84.29% # Class of committed instruction (Count)
system.cpu.commit.committedInstType_0::SimdFloatAlu            0      0.00%     84.29% # Class of committed instruction (Count)
system.cpu.commit.committedInstType_0::SimdFloatCmp       569268      1.69%     85.98% # Class of committed instruction (Count)
system.cpu.commit.committedInstType_0::SimdFloatCvt         8820      0.03%     86.00% # Class of committed instruction (Count)
system.cpu.commit.committedInstType_0::SimdFloatDiv            0      0.00%     86.00% # Class of committed instruction (Count)
system.cpu.commit.committedInstType_0::SimdFloatMisc            0      0.00%     86.00% # Class of committed instruction (Count)
system.cpu.commit.committedInstType_0::SimdFloatMult            0      0.00%     86.00% # Class of committed instruction (Count)
system.cpu.commit.committedInstType_0::SimdFloatMultAcc            0      0.00%     86.00% # Class of committed instruction (Count)
system.cpu.commit.committedInstType_0::SimdFloatSqrt            0      0.00%     86.00% # Class of committed instruction (Count)
system.cpu.commit.committedInstType_0::SimdReduceAdd            0      0.00%     86.00% # Class of committed instruction (Count)
system.cpu.commit.committedInstType_0::SimdReduceAlu            0      0.00%     86.00% # Class of committed instruction (Count)
system.cpu.commit.committedInstType_0::SimdReduceCmp            0      0.00%     86.00% # Class of committed instruction (Count)
system.cpu.commit.committedInstType_0::SimdFloatReduceAdd            0      0.00%     86.00% # Class of committed instruction (Count)
system.cpu.commit.committedInstType_0::SimdFloatReduceCmp            0      0.00%     86.00% # Class of committed instruction (Count)
system.cpu.commit.committedInstType_0::SimdAes            0      0.00%     86.00% # Class of committed instruction (Count)
system.cpu.commit.committedInstType_0::SimdAesMix            0      0.00%     86.00% # Class of committed instruction (Count)
system.cpu.commit.committedInstType_0::SimdSha1Hash            0      0.00%     86.00% # Class of committed instruction (Count)
system.cpu.commit.committedInstType_0::SimdSha1Hash2            0      0.00%     86.00% # Class of committed instruction (Count)
system.cpu.commit.committedInstType_0::SimdSha256Hash            0      0.00%     86.00% # Class of committed instruction (Count)
system.cpu.commit.committedInstType_0::SimdSha256Hash2            0      0.00%     86.00% # Class of committed instruction (Count)
system.cpu.commit.committedInstType_0::SimdShaSigma2            0      0.00%     86.00% # Class of committed instruction (Count)
system.cpu.commit.committedInstType_0::SimdShaSigma3            0      0.00%     86.00% # Class of committed instruction (Count)
system.cpu.commit.committedInstType_0::SimdPredAlu            0      0.00%     86.00% # Class of committed instruction (Count)
system.cpu.commit.committedInstType_0::MemRead      2034690      6.03%     92.03% # Class of committed instruction (Count)
system.cpu.commit.committedInstType_0::MemWrite      1387717      4.11%     96.14% # Class of committed instruction (Count)
system.cpu.commit.committedInstType_0::FloatMemRead      1266674      3.75%     99.89% # Class of committed instruction (Count)
system.cpu.commit.committedInstType_0::FloatMemWrite        37423      0.11%    100.00% # Class of committed instruction (Count)
system.cpu.commit.committedInstType_0::IprAccess            0      0.00%    100.00% # Class of committed instruction (Count)
system.cpu.commit.committedInstType_0::InstPrefetch            0      0.00%    100.00% # Class of committed instruction (Count)
system.cpu.commit.committedInstType_0::total     33764884                       # Class of committed instruction (Count)
system.cpu.commit.commitEligibleSamples       2116807                       # number cycles where commit BW limit reached (Cycle)
system.cpu.dcache.demandHits::cpu.data        3346116                       # number of demand (read+write) hits (Count)
system.cpu.dcache.demandHits::total           3346116                       # number of demand (read+write) hits (Count)
system.cpu.dcache.overallHits::cpu.data       3346116                       # number of overall hits (Count)
system.cpu.dcache.overallHits::total          3346116                       # number of overall hits (Count)
system.cpu.dcache.demandMisses::cpu.data      1048991                       # number of demand (read+write) misses (Count)
system.cpu.dcache.demandMisses::total         1048991                       # number of demand (read+write) misses (Count)
system.cpu.dcache.overallMisses::cpu.data      1048991                       # number of overall misses (Count)
system.cpu.dcache.overallMisses::total        1048991                       # number of overall misses (Count)
system.cpu.dcache.demandMissLatency::cpu.data  50966522432                       # number of demand (read+write) miss ticks (Tick)
system.cpu.dcache.demandMissLatency::total  50966522432                       # number of demand (read+write) miss ticks (Tick)
system.cpu.dcache.overallMissLatency::cpu.data  50966522432                       # number of overall miss ticks (Tick)
system.cpu.dcache.overallMissLatency::total  50966522432                       # number of overall miss ticks (Tick)
system.cpu.dcache.demandAccesses::cpu.data      4395107                       # number of demand (read+write) accesses (Count)
system.cpu.dcache.demandAccesses::total       4395107                       # number of demand (read+write) accesses (Count)
system.cpu.dcache.overallAccesses::cpu.data      4395107                       # number of overall (read+write) accesses (Count)
system.cpu.dcache.overallAccesses::total      4395107                       # number of overall (read+write) accesses (Count)
system.cpu.dcache.demandMissRate::cpu.data     0.238672                       # miss rate for demand accesses (Ratio)
system.cpu.dcache.demandMissRate::total      0.238672                       # miss rate for demand accesses (Ratio)
system.cpu.dcache.overallMissRate::cpu.data     0.238672                       # miss rate for overall accesses (Ratio)
system.cpu.dcache.overallMissRate::total     0.238672                       # miss rate for overall accesses (Ratio)
system.cpu.dcache.demandAvgMissLatency::cpu.data 48586.234231                       # average overall miss latency ((Cycle/Count))
system.cpu.dcache.demandAvgMissLatency::total 48586.234231                       # average overall miss latency ((Cycle/Count))
system.cpu.dcache.overallAvgMissLatency::cpu.data 48586.234231                       # average overall miss latency ((Cycle/Count))
system.cpu.dcache.overallAvgMissLatency::total 48586.234231                       # average overall miss latency ((Cycle/Count))
system.cpu.dcache.blockedCycles::no_mshrs     15827063                       # number of cycles access was blocked (Cycle)
system.cpu.dcache.blockedCycles::no_targets            0                       # number of cycles access was blocked (Cycle)
system.cpu.dcache.blockedCauses::no_mshrs       624933                       # number of times access was blocked (Count)
system.cpu.dcache.blockedCauses::no_targets            0                       # number of times access was blocked (Count)
system.cpu.dcache.avgBlocked::no_mshrs      25.326016                       # average number of cycles each access was blocked ((Cycle/Count))
system.cpu.dcache.avgBlocked::no_targets          nan                       # average number of cycles each access was blocked ((Cycle/Count))
system.cpu.dcache.writebacks::writebacks       137418                       # number of writebacks (Count)
system.cpu.dcache.writebacks::total            137418                       # number of writebacks (Count)
system.cpu.dcache.demandMshrHits::cpu.data       165040                       # number of demand (read+write) MSHR hits (Count)
system.cpu.dcache.demandMshrHits::total        165040                       # number of demand (read+write) MSHR hits (Count)
system.cpu.dcache.overallMshrHits::cpu.data       165040                       # number of overall MSHR hits (Count)
system.cpu.dcache.overallMshrHits::total       165040                       # number of overall MSHR hits (Count)
system.cpu.dcache.demandMshrMisses::cpu.data       883951                       # number of demand (read+write) MSHR misses (Count)
system.cpu.dcache.demandMshrMisses::total       883951                       # number of demand (read+write) MSHR misses (Count)
system.cpu.dcache.overallMshrMisses::cpu.data       883951                       # number of overall MSHR misses (Count)
system.cpu.dcache.overallMshrMisses::total       883951                       # number of overall MSHR misses (Count)
system.cpu.dcache.demandMshrMissLatency::cpu.data  44197033932                       # number of demand (read+write) MSHR miss ticks (Tick)
system.cpu.dcache.demandMshrMissLatency::total  44197033932                       # number of demand (read+write) MSHR miss ticks (Tick)
system.cpu.dcache.overallMshrMissLatency::cpu.data  44197033932                       # number of overall MSHR miss ticks (Tick)
system.cpu.dcache.overallMshrMissLatency::total  44197033932                       # number of overall MSHR miss ticks (Tick)
system.cpu.dcache.demandMshrMissRate::cpu.data     0.201122                       # mshr miss ratio for demand accesses (Ratio)
system.cpu.dcache.demandMshrMissRate::total     0.201122                       # mshr miss ratio for demand accesses (Ratio)
system.cpu.dcache.overallMshrMissRate::cpu.data     0.201122                       # mshr miss ratio for overall accesses (Ratio)
system.cpu.dcache.overallMshrMissRate::total     0.201122                       # mshr miss ratio for overall accesses (Ratio)
system.cpu.dcache.demandAvgMshrMissLatency::cpu.data 49999.416180                       # average overall mshr miss latency ((Cycle/Count))
system.cpu.dcache.demandAvgMshrMissLatency::total 49999.416180                       # average overall mshr miss latency ((Cycle/Count))
system.cpu.dcache.overallAvgMshrMissLatency::cpu.data 49999.416180                       # average overall mshr miss latency ((Cycle/Count))
system.cpu.dcache.overallAvgMshrMissLatency::total 49999.416180                       # average overall mshr miss latency ((Cycle/Count))
system.cpu.dcache.replacements                 883935                       # number of replacements (Count)
system.cpu.dcache.ReadReq.hits::cpu.data      2020369                       # number of ReadReq hits (Count)
system.cpu.dcache.ReadReq.hits::total         2020369                       # number of ReadReq hits (Count)
system.cpu.dcache.ReadReq.misses::cpu.data       949597                       # number of ReadReq misses (Count)
system.cpu.dcache.ReadReq.misses::total        949597                       # number of ReadReq misses (Count)
system.cpu.dcache.ReadReq.missLatency::cpu.data  48421671500                       # number of ReadReq miss ticks (Tick)
system.cpu.dcache.ReadReq.missLatency::total  48421671500                       # number of ReadReq miss ticks (Tick)
system.cpu.dcache.ReadReq.accesses::cpu.data      2969966                       # number of ReadReq accesses(hits+misses) (Count)
system.cpu.dcache.ReadReq.accesses::total      2969966                       # number of ReadReq accesses(hits+misses) (Count)
system.cpu.dcache.ReadReq.missRate::cpu.data     0.319733                       # miss rate for ReadReq accesses (Ratio)
system.cpu.dcache.ReadReq.missRate::total     0.319733                       # miss rate for ReadReq accesses (Ratio)
system.cpu.dcache.ReadReq.avgMissLatency::cpu.data 50991.811790                       # average ReadReq miss latency ((Tick/Count))
system.cpu.dcache.ReadReq.avgMissLatency::total 50991.811790                       # average ReadReq miss latency ((Tick/Count))
system.cpu.dcache.ReadReq.mshrHits::cpu.data       164164                       # number of ReadReq MSHR hits (Count)
system.cpu.dcache.ReadReq.mshrHits::total       164164                       # number of ReadReq MSHR hits (Count)
system.cpu.dcache.ReadReq.mshrMisses::cpu.data       785433                       # number of ReadReq MSHR misses (Count)
system.cpu.dcache.ReadReq.mshrMisses::total       785433                       # number of ReadReq MSHR misses (Count)
system.cpu.dcache.ReadReq.mshrMissLatency::cpu.data  41773284000                       # number of ReadReq MSHR miss ticks (Tick)
system.cpu.dcache.ReadReq.mshrMissLatency::total  41773284000                       # number of ReadReq MSHR miss ticks (Tick)
system.cpu.dcache.ReadReq.mshrMissRate::cpu.data     0.264459                       # mshr miss rate for ReadReq accesses (Ratio)
system.cpu.dcache.ReadReq.mshrMissRate::total     0.264459                       # mshr miss rate for ReadReq accesses (Ratio)
system.cpu.dcache.ReadReq.avgMshrMissLatency::cpu.data 53185.038062                       # average ReadReq mshr miss latency ((Tick/Count))
system.cpu.dcache.ReadReq.avgMshrMissLatency::total 53185.038062                       # average ReadReq mshr miss latency ((Tick/Count))
system.cpu.dcache.WriteReq.hits::cpu.data      1325747                       # number of WriteReq hits (Count)
system.cpu.dcache.WriteReq.hits::total        1325747                       # number of WriteReq hits (Count)
system.cpu.dcache.WriteReq.misses::cpu.data        99394                       # number of WriteReq misses (Count)
system.cpu.dcache.WriteReq.misses::total        99394                       # number of WriteReq misses (Count)
system.cpu.dcache.WriteReq.missLatency::cpu.data   2544850932                       # number of WriteReq miss ticks (Tick)
system.cpu.dcache.WriteReq.missLatency::total   2544850932                       # number of WriteReq miss ticks (Tick)
system.cpu.dcache.WriteReq.accesses::cpu.data      1425141                       # number of WriteReq accesses(hits+misses) (Count)
system.cpu.dcache.WriteReq.accesses::total      1425141                       # number of WriteReq accesses(hits+misses) (Count)
system.cpu.dcache.WriteReq.missRate::cpu.data     0.069743                       # miss rate for WriteReq accesses (Ratio)
system.cpu.dcache.WriteReq.missRate::total     0.069743                       # miss rate for WriteReq accesses (Ratio)
system.cpu.dcache.WriteReq.avgMissLatency::cpu.data 25603.667545                       # average WriteReq miss latency ((Tick/Count))
system.cpu.dcache.WriteReq.avgMissLatency::total 25603.667545                       # average WriteReq miss latency ((Tick/Count))
system.cpu.dcache.WriteReq.mshrHits::cpu.data          876                       # number of WriteReq MSHR hits (Count)
system.cpu.dcache.WriteReq.mshrHits::total          876                       # number of WriteReq MSHR hits (Count)
system.cpu.dcache.WriteReq.mshrMisses::cpu.data        98518                       # number of WriteReq MSHR misses (Count)
system.cpu.dcache.WriteReq.mshrMisses::total        98518                       # number of WriteReq MSHR misses (Count)
system.cpu.dcache.WriteReq.mshrMissLatency::cpu.data   2423749932                       # number of WriteReq MSHR miss ticks (Tick)
system.cpu.dcache.WriteReq.mshrMissLatency::total   2423749932                       # number of WriteReq MSHR miss ticks (Tick)
system.cpu.dcache.WriteReq.mshrMissRate::cpu.data     0.069129                       # mshr miss rate for WriteReq accesses (Ratio)
system.cpu.dcache.WriteReq.mshrMissRate::total     0.069129                       # mshr miss rate for WriteReq accesses (Ratio)
system.cpu.dcache.WriteReq.avgMshrMissLatency::cpu.data 24602.102479                       # average WriteReq mshr miss latency ((Tick/Count))
system.cpu.dcache.WriteReq.avgMshrMissLatency::total 24602.102479                       # average WriteReq mshr miss latency ((Tick/Count))
system.cpu.dcache.power_state.pwrStateResidencyTicks::UNDEFINED  17469843000                       # Cumulative time (in ticks) in various power states (Tick)
system.cpu.dcache.tags.tagsInUse            15.999574                       # Average ticks per tags in use ((Tick/Count))
system.cpu.dcache.tags.totalRefs              4230067                       # Total number of references to valid blocks. (Count)
system.cpu.dcache.tags.sampledRefs             883951                       # Sample count of references to valid blocks. (Count)
system.cpu.dcache.tags.avgRefs               4.785409                       # Average number of references to valid blocks. ((Count/Count))
system.cpu.dcache.tags.warmupTick              145000                       # The tick when the warmup percentage was hit. (Tick)
system.cpu.dcache.tags.occupancies::cpu.data    15.999574                       # Average occupied blocks per tick, per requestor ((Count/Tick))
system.cpu.dcache.tags.avgOccs::cpu.data     0.999973                       # Average percentage of cache occupancy ((Ratio/Tick))
system.cpu.dcache.tags.avgOccs::total        0.999973                       # Average percentage of cache occupancy ((Ratio/Tick))
system.cpu.dcache.tags.occupanciesTaskId::1024           16                       # Occupied blocks per task id (Count)
system.cpu.dcache.tags.ageTaskId_1024::0           16                       # Occupied blocks per task id, per block age (Count)
system.cpu.dcache.tags.ratioOccsTaskId::1024            1                       # Ratio of occupied blocks and all blocks, per task id (Ratio)
system.cpu.dcache.tags.tagAccesses            9674165                       # Number of tag accesses (Count)
system.cpu.dcache.tags.dataAccesses           9674165                       # Number of data accesses (Count)
system.cpu.dcache.tags.power_state.pwrStateResidencyTicks::UNDEFINED  17469843000                       # Cumulative time (in ticks) in various power states (Tick)
system.cpu.decode.idleCycles                  1836171                       # Number of cycles decode is idle (Cycle)
system.cpu.decode.blockedCycles              27943818                       # Number of cycles decode is blocked (Cycle)
system.cpu.decode.runCycles                   2794466                       # Number of cycles decode is running (Cycle)
system.cpu.decode.unblockCycles               2235464                       # Number of cycles decode is unblocking (Cycle)
system.cpu.decode.squashCycles                  78228                       # Number of cycles decode is squashing (Cycle)
system.cpu.decode.branchResolved              2780105                       # Number of times decode resolved a branch (Count)
system.cpu.decode.branchMispred                   451                       # Number of times decode detected a branch misprediction (Count)
system.cpu.decode.decodedInsts               36806503                       # Number of instructions handled by decode (Count)
system.cpu.decode.squashedInsts                  2231                       # Number of squashed instructions handled by decode (Count)
system.cpu.dtb_walker_cache.blockedCycles::no_mshrs            0                       # number of cycles access was blocked (Cycle)
system.cpu.dtb_walker_cache.blockedCycles::no_targets            0                       # number of cycles access was blocked (Cycle)
system.cpu.dtb_walker_cache.blockedCauses::no_mshrs            0                       # number of times access was blocked (Count)
system.cpu.dtb_walker_cache.blockedCauses::no_targets            0                       # number of times access was blocked (Count)
system.cpu.dtb_walker_cache.avgBlocked::no_mshrs          nan                       # average number of cycles each access was blocked ((Cycle/Count))
system.cpu.dtb_walker_cache.avgBlocked::no_targets          nan                       # average number of cycles each access was blocked ((Cycle/Count))
system.cpu.dtb_walker_cache.replacements            0                       # number of replacements (Count)
system.cpu.dtb_walker_cache.power_state.pwrStateResidencyTicks::UNDEFINED  17469843000                       # Cumulative time (in ticks) in various power states (Tick)
system.cpu.dtb_walker_cache.tags.tagsInUse            0                       # Average ticks per tags in use ((Tick/Count))
system.cpu.dtb_walker_cache.tags.totalRefs            0                       # Total number of references to valid blocks. (Count)
system.cpu.dtb_walker_cache.tags.sampledRefs            0                       # Sample count of references to valid blocks. (Count)
system.cpu.dtb_walker_cache.tags.avgRefs          nan                       # Average number of references to valid blocks. ((Count/Count))
system.cpu.dtb_walker_cache.tags.warmupTick            0                       # The tick when the warmup percentage was hit. (Tick)
system.cpu.dtb_walker_cache.tags.tagAccesses            0                       # Number of tag accesses (Count)
system.cpu.dtb_walker_cache.tags.dataAccesses            0                       # Number of data accesses (Count)
system.cpu.dtb_walker_cache.tags.power_state.pwrStateResidencyTicks::UNDEFINED  17469843000                       # Cumulative time (in ticks) in various power states (Tick)
system.cpu.fetch.icacheStallCycles            2891278                       # Number of cycles fetch is stalled on an Icache miss (Cycle)
system.cpu.fetch.insts                       18272524                       # Number of instructions fetch has processed (Count)
system.cpu.fetch.branches                     4454635                       # Number of branches that fetch encountered (Count)
system.cpu.fetch.predictedBranches            3250515                       # Number of branches that fetch has predicted taken (Count)
system.cpu.fetch.cycles                      31917262                       # Number of cycles fetch has run and was not squashing or blocked (Cycle)
system.cpu.fetch.squashCycles                  157342                       # Number of cycles fetch has spent squashing (Cycle)
system.cpu.fetch.miscStallCycles                  127                       # Number of cycles fetch has spent waiting on interrupts, or bad addresses, or out of MSHRs (Cycle)
system.cpu.fetch.pendingTrapStallCycles           750                       # Number of stall cycles due to pending traps (Cycle)
system.cpu.fetch.pendingQuiesceStallCycles           36                       # Number of stall cycles due to pending quiesce instructions (Cycle)
system.cpu.fetch.icacheWaitRetryStallCycles           23                       # Number of stall cycles due to full MSHR (Cycle)
system.cpu.fetch.cacheLines                   2810481                       # Number of cache lines fetched (Count)
system.cpu.fetch.icacheSquashes                 13951                       # Number of outstanding Icache misses that were squashed (Count)
system.cpu.fetch.nisnDist::samples           34888147                       # Number of instructions fetched each cycle (Total) (Count)
system.cpu.fetch.nisnDist::mean              1.101589                       # Number of instructions fetched each cycle (Total) (Count)
system.cpu.fetch.nisnDist::stdev             2.489423                       # Number of instructions fetched each cycle (Total) (Count)
system.cpu.fetch.nisnDist::underflows               0      0.00%      0.00% # Number of instructions fetched each cycle (Total) (Count)
system.cpu.fetch.nisnDist::0                 28001302     80.26%     80.26% # Number of instructions fetched each cycle (Total) (Count)
system.cpu.fetch.nisnDist::1                   200916      0.58%     80.84% # Number of instructions fetched each cycle (Total) (Count)
system.cpu.fetch.nisnDist::2                  1261069      3.61%     84.45% # Number of instructions fetched each cycle (Total) (Count)
system.cpu.fetch.nisnDist::3                   226811      0.65%     85.10% # Number of instructions fetched each cycle (Total) (Count)
system.cpu.fetch.nisnDist::4                  1153980      3.31%     88.41% # Number of instructions fetched each cycle (Total) (Count)
system.cpu.fetch.nisnDist::5                   425339      1.22%     89.63% # Number of instructions fetched each cycle (Total) (Count)
system.cpu.fetch.nisnDist::6                   258603      0.74%     90.37% # Number of instructions fetched each cycle (Total) (Count)
system.cpu.fetch.nisnDist::7                   146339      0.42%     90.79% # Number of instructions fetched each cycle (Total) (Count)
system.cpu.fetch.nisnDist::8                  3213788      9.21%    100.00% # Number of instructions fetched each cycle (Total) (Count)
system.cpu.fetch.nisnDist::overflows                0      0.00%    100.00% # Number of instructions fetched each cycle (Total) (Count)
system.cpu.fetch.nisnDist::min_value                0                       # Number of instructions fetched each cycle (Total) (Count)
system.cpu.fetch.nisnDist::max_value                8                       # Number of instructions fetched each cycle (Total) (Count)
system.cpu.fetch.nisnDist::total             34888147                       # Number of instructions fetched each cycle (Total) (Count)
system.cpu.fetch.branchRate                  0.127495                       # Number of branch fetches per cycle (Ratio)
system.cpu.fetch.rate                        0.522973                       # Number of inst fetches per cycle ((Count/Cycle))
system.cpu.icache.demandHits::cpu.inst        2808825                       # number of demand (read+write) hits (Count)
system.cpu.icache.demandHits::total           2808825                       # number of demand (read+write) hits (Count)
system.cpu.icache.overallHits::cpu.inst       2808825                       # number of overall hits (Count)
system.cpu.icache.overallHits::total          2808825                       # number of overall hits (Count)
system.cpu.icache.demandMisses::cpu.inst         1656                       # number of demand (read+write) misses (Count)
system.cpu.icache.demandMisses::total            1656                       # number of demand (read+write) misses (Count)
system.cpu.icache.overallMisses::cpu.inst         1656                       # number of overall misses (Count)
system.cpu.icache.overallMisses::total           1656                       # number of overall misses (Count)
system.cpu.icache.demandMissLatency::cpu.inst     86701500                       # number of demand (read+write) miss ticks (Tick)
system.cpu.icache.demandMissLatency::total     86701500                       # number of demand (read+write) miss ticks (Tick)
system.cpu.icache.overallMissLatency::cpu.inst     86701500                       # number of overall miss ticks (Tick)
system.cpu.icache.overallMissLatency::total     86701500                       # number of overall miss ticks (Tick)
system.cpu.icache.demandAccesses::cpu.inst      2810481                       # number of demand (read+write) accesses (Count)
system.cpu.icache.demandAccesses::total       2810481                       # number of demand (read+write) accesses (Count)
system.cpu.icache.overallAccesses::cpu.inst      2810481                       # number of overall (read+write) accesses (Count)
system.cpu.icache.overallAccesses::total      2810481                       # number of overall (read+write) accesses (Count)
system.cpu.icache.demandMissRate::cpu.inst     0.000589                       # miss rate for demand accesses (Ratio)
system.cpu.icache.demandMissRate::total      0.000589                       # miss rate for demand accesses (Ratio)
system.cpu.icache.overallMissRate::cpu.inst     0.000589                       # miss rate for overall accesses (Ratio)
system.cpu.icache.overallMissRate::total     0.000589                       # miss rate for overall accesses (Ratio)
system.cpu.icache.demandAvgMissLatency::cpu.inst 52355.978261                       # average overall miss latency ((Cycle/Count))
system.cpu.icache.demandAvgMissLatency::total 52355.978261                       # average overall miss latency ((Cycle/Count))
system.cpu.icache.overallAvgMissLatency::cpu.inst 52355.978261                       # average overall miss latency ((Cycle/Count))
system.cpu.icache.overallAvgMissLatency::total 52355.978261                       # average overall miss latency ((Cycle/Count))
system.cpu.icache.blockedCycles::no_mshrs          185                       # number of cycles access was blocked (Cycle)
system.cpu.icache.blockedCycles::no_targets            0                       # number of cycles access was blocked (Cycle)
system.cpu.icache.blockedCauses::no_mshrs            4                       # number of times access was blocked (Count)
system.cpu.icache.blockedCauses::no_targets            0                       # number of times access was blocked (Count)
system.cpu.icache.avgBlocked::no_mshrs      46.250000                       # average number of cycles each access was blocked ((Cycle/Count))
system.cpu.icache.avgBlocked::no_targets          nan                       # average number of cycles each access was blocked ((Cycle/Count))
system.cpu.icache.writebacks::writebacks          902                       # number of writebacks (Count)
system.cpu.icache.writebacks::total               902                       # number of writebacks (Count)
system.cpu.icache.demandMshrHits::cpu.inst          264                       # number of demand (read+write) MSHR hits (Count)
system.cpu.icache.demandMshrHits::total           264                       # number of demand (read+write) MSHR hits (Count)
system.cpu.icache.overallMshrHits::cpu.inst          264                       # number of overall MSHR hits (Count)
system.cpu.icache.overallMshrHits::total          264                       # number of overall MSHR hits (Count)
system.cpu.icache.demandMshrMisses::cpu.inst         1392                       # number of demand (read+write) MSHR misses (Count)
system.cpu.icache.demandMshrMisses::total         1392                       # number of demand (read+write) MSHR misses (Count)
system.cpu.icache.overallMshrMisses::cpu.inst         1392                       # number of overall MSHR misses (Count)
system.cpu.icache.overallMshrMisses::total         1392                       # number of overall MSHR misses (Count)
system.cpu.icache.demandMshrMissLatency::cpu.inst     73031500                       # number of demand (read+write) MSHR miss ticks (Tick)
system.cpu.icache.demandMshrMissLatency::total     73031500                       # number of demand (read+write) MSHR miss ticks (Tick)
system.cpu.icache.overallMshrMissLatency::cpu.inst     73031500                       # number of overall MSHR miss ticks (Tick)
system.cpu.icache.overallMshrMissLatency::total     73031500                       # number of overall MSHR miss ticks (Tick)
system.cpu.icache.demandMshrMissRate::cpu.inst     0.000495                       # mshr miss ratio for demand accesses (Ratio)
system.cpu.icache.demandMshrMissRate::total     0.000495                       # mshr miss ratio for demand accesses (Ratio)
system.cpu.icache.overallMshrMissRate::cpu.inst     0.000495                       # mshr miss ratio for overall accesses (Ratio)
system.cpu.icache.overallMshrMissRate::total     0.000495                       # mshr miss ratio for overall accesses (Ratio)
system.cpu.icache.demandAvgMshrMissLatency::cpu.inst 52465.158046                       # average overall mshr miss latency ((Cycle/Count))
system.cpu.icache.demandAvgMshrMissLatency::total 52465.158046                       # average overall mshr miss latency ((Cycle/Count))
system.cpu.icache.overallAvgMshrMissLatency::cpu.inst 52465.158046                       # average overall mshr miss latency ((Cycle/Count))
system.cpu.icache.overallAvgMshrMissLatency::total 52465.158046                       # average overall mshr miss latency ((Cycle/Count))
system.cpu.icache.replacements                    902                       # number of replacements (Count)
system.cpu.icache.ReadReq.hits::cpu.inst      2808825                       # number of ReadReq hits (Count)
system.cpu.icache.ReadReq.hits::total         2808825                       # number of ReadReq hits (Count)
system.cpu.icache.ReadReq.misses::cpu.inst         1656                       # number of ReadReq misses (Count)
system.cpu.icache.ReadReq.misses::total          1656                       # number of ReadReq misses (Count)
system.cpu.icache.ReadReq.missLatency::cpu.inst     86701500                       # number of ReadReq miss ticks (Tick)
system.cpu.icache.ReadReq.missLatency::total     86701500                       # number of ReadReq miss ticks (Tick)
system.cpu.icache.ReadReq.accesses::cpu.inst      2810481                       # number of ReadReq accesses(hits+misses) (Count)
system.cpu.icache.ReadReq.accesses::total      2810481                       # number of ReadReq accesses(hits+misses) (Count)
system.cpu.icache.ReadReq.missRate::cpu.inst     0.000589                       # miss rate for ReadReq accesses (Ratio)
system.cpu.icache.ReadReq.missRate::total     0.000589                       # miss rate for ReadReq accesses (Ratio)
system.cpu.icache.ReadReq.avgMissLatency::cpu.inst 52355.978261                       # average ReadReq miss latency ((Tick/Count))
system.cpu.icache.ReadReq.avgMissLatency::total 52355.978261                       # average ReadReq miss latency ((Tick/Count))
system.cpu.icache.ReadReq.mshrHits::cpu.inst          264                       # number of ReadReq MSHR hits (Count)
system.cpu.icache.ReadReq.mshrHits::total          264                       # number of ReadReq MSHR hits (Count)
system.cpu.icache.ReadReq.mshrMisses::cpu.inst         1392                       # number of ReadReq MSHR misses (Count)
system.cpu.icache.ReadReq.mshrMisses::total         1392                       # number of ReadReq MSHR misses (Count)
system.cpu.icache.ReadReq.mshrMissLatency::cpu.inst     73031500                       # number of ReadReq MSHR miss ticks (Tick)
system.cpu.icache.ReadReq.mshrMissLatency::total     73031500                       # number of ReadReq MSHR miss ticks (Tick)
system.cpu.icache.ReadReq.mshrMissRate::cpu.inst     0.000495                       # mshr miss rate for ReadReq accesses (Ratio)
system.cpu.icache.ReadReq.mshrMissRate::total     0.000495                       # mshr miss rate for ReadReq accesses (Ratio)
system.cpu.icache.ReadReq.avgMshrMissLatency::cpu.inst 52465.158046                       # average ReadReq mshr miss latency ((Tick/Count))
system.cpu.icache.ReadReq.avgMshrMissLatency::total 52465.158046                       # average ReadReq mshr miss latency ((Tick/Count))
system.cpu.icache.power_state.pwrStateResidencyTicks::UNDEFINED  17469843000                       # Cumulative time (in ticks) in various power states (Tick)
system.cpu.icache.tags.tagsInUse           428.237199                       # Average ticks per tags in use ((Tick/Count))
system.cpu.icache.tags.totalRefs              2810216                       # Total number of references to valid blocks. (Count)
system.cpu.icache.tags.sampledRefs               1391                       # Sample count of references to valid blocks. (Count)
system.cpu.icache.tags.avgRefs            2020.284687                       # Average number of references to valid blocks. ((Count/Count))
system.cpu.icache.tags.warmupTick               77000                       # The tick when the warmup percentage was hit. (Tick)
system.cpu.icache.tags.occupancies::cpu.inst   428.237199                       # Average occupied blocks per tick, per requestor ((Count/Tick))
system.cpu.icache.tags.avgOccs::cpu.inst     0.836401                       # Average percentage of cache occupancy ((Ratio/Tick))
system.cpu.icache.tags.avgOccs::total        0.836401                       # Average percentage of cache occupancy ((Ratio/Tick))
system.cpu.icache.tags.occupanciesTaskId::1024          489                       # Occupied blocks per task id (Count)
system.cpu.icache.tags.ageTaskId_1024::0          144                       # Occupied blocks per task id, per block age (Count)
system.cpu.icache.tags.ageTaskId_1024::1           20                       # Occupied blocks per task id, per block age (Count)
system.cpu.icache.tags.ageTaskId_1024::2           97                       # Occupied blocks per task id, per block age (Count)
system.cpu.icache.tags.ageTaskId_1024::3           11                       # Occupied blocks per task id, per block age (Count)
system.cpu.icache.tags.ageTaskId_1024::4          217                       # Occupied blocks per task id, per block age (Count)
system.cpu.icache.tags.ratioOccsTaskId::1024     0.955078                       # Ratio of occupied blocks and all blocks, per task id (Ratio)
system.cpu.icache.tags.tagAccesses            5622353                       # Number of tag accesses (Count)
system.cpu.icache.tags.dataAccesses           5622353                       # Number of data accesses (Count)
system.cpu.icache.tags.power_state.pwrStateResidencyTicks::UNDEFINED  17469843000                       # Cumulative time (in ticks) in various power states (Tick)
system.cpu.iew.idleCycles                           0                       # Number of cycles IEW is idle (Cycle)
system.cpu.iew.squashCycles                     78228                       # Number of cycles IEW is squashing (Cycle)
system.cpu.iew.blockCycles                   10541678                       # Number of cycles IEW is blocking (Cycle)
system.cpu.iew.unblockCycles                  1719598                       # Number of cycles IEW is unblocking (Cycle)
system.cpu.iew.dispatchedInsts               35895712                       # Number of instructions dispatched to IQ (Count)
system.cpu.iew.dispSquashedInsts                 6170                       # Number of squashed instructions skipped by dispatch (Count)
system.cpu.iew.dispLoadInsts                  3425164                       # Number of dispatched load instructions (Count)
system.cpu.iew.dispStoreInsts                 1507793                       # Number of dispatched store instructions (Count)
system.cpu.iew.dispNonSpecInsts                    21                       # Number of dispatched non-speculative instructions (Count)
system.cpu.iew.iqFullEvents                    191417                       # Number of times the IQ has become full, causing a stall (Count)
system.cpu.iew.lsqFullEvents                  1239993                       # Number of times the LSQ has become full, causing a stall (Count)
system.cpu.iew.memOrderViolationEvents            210                       # Number of memory order violations (Count)
system.cpu.iew.predictedTakenIncorrect          49615                       # Number of branches that were predicted taken incorrectly (Count)
system.cpu.iew.predictedNotTakenIncorrect        47993                       # Number of branches that were predicted not taken incorrectly (Count)
system.cpu.iew.branchMispredicts                97608                       # Number of branch mispredicts detected at execute (Count)
system.cpu.iew.instsToCommit                 34818647                       # Cumulative count of insts sent to commit (Count)
system.cpu.iew.writebackCount                34802915                       # Cumulative count of insts written-back (Count)
system.cpu.iew.producerInst                  22661540                       # Number of instructions producing a value (Count)
system.cpu.iew.consumerInst                  41058980                       # Number of instructions consuming a value (Count)
system.cpu.iew.wbRate                        0.996085                       # Insts written-back per cycle ((Count/Cycle))
system.cpu.iew.wbFanout                      0.551927                       # Average fanout of values written-back ((Count/Count))
system.cpu.interrupts.clk_domain.clock           8000                       # Clock period in ticks (Tick)
system.cpu.itb_walker_cache.blockedCycles::no_mshrs            0                       # number of cycles access was blocked (Cycle)
system.cpu.itb_walker_cache.blockedCycles::no_targets            0                       # number of cycles access was blocked (Cycle)
system.cpu.itb_walker_cache.blockedCauses::no_mshrs            0                       # number of times access was blocked (Count)
system.cpu.itb_walker_cache.blockedCauses::no_targets            0                       # number of times access was blocked (Count)
system.cpu.itb_walker_cache.avgBlocked::no_mshrs          nan                       # average number of cycles each access was blocked ((Cycle/Count))
system.cpu.itb_walker_cache.avgBlocked::no_targets          nan                       # average number of cycles each access was blocked ((Cycle/Count))
system.cpu.itb_walker_cache.replacements            0                       # number of replacements (Count)
system.cpu.itb_walker_cache.power_state.pwrStateResidencyTicks::UNDEFINED  17469843000                       # Cumulative time (in ticks) in various power states (Tick)
system.cpu.itb_walker_cache.tags.tagsInUse            0                       # Average ticks per tags in use ((Tick/Count))
system.cpu.itb_walker_cache.tags.totalRefs            0                       # Total number of references to valid blocks. (Count)
system.cpu.itb_walker_cache.tags.sampledRefs            0                       # Sample count of references to valid blocks. (Count)
system.cpu.itb_walker_cache.tags.avgRefs          nan                       # Average number of references to valid blocks. ((Count/Count))
system.cpu.itb_walker_cache.tags.warmupTick            0                       # The tick when the warmup percentage was hit. (Tick)
system.cpu.itb_walker_cache.tags.tagAccesses            0                       # Number of tag accesses (Count)
system.cpu.itb_walker_cache.tags.dataAccesses            0                       # Number of data accesses (Count)
system.cpu.itb_walker_cache.tags.power_state.pwrStateResidencyTicks::UNDEFINED  17469843000                       # Cumulative time (in ticks) in various power states (Tick)
system.cpu.lsq0.forwLoads                      401983                       # Number of loads that had data forwarded from stores (Count)
system.cpu.lsq0.squashedLoads                  123800                       # Number of loads squashed (Count)
system.cpu.lsq0.ignoredResponses                  505                       # Number of memory responses ignored because the instruction is squashed (Count)
system.cpu.lsq0.memOrderViolation                 210                       # Number of memory ordering violations (Count)
system.cpu.lsq0.squashedStores                  82653                       # Number of stores squashed (Count)
system.cpu.lsq0.rescheduledLoads                    3                       # Number of loads that were rescheduled (Count)
system.cpu.lsq0.blockedByCache                 616601                       # Number of times an access to memory failed due to the cache being blocked (Count)
system.cpu.lsq0.loadToUse::samples            3301364                       # Distribution of cycle latency between the first time a load is issued and its completion (Unspecified)
system.cpu.lsq0.loadToUse::mean            108.050441                       # Distribution of cycle latency between the first time a load is issued and its completion (Unspecified)
system.cpu.lsq0.loadToUse::stdev           138.652781                       # Distribution of cycle latency between the first time a load is issued and its completion (Unspecified)
system.cpu.lsq0.loadToUse::0-9                1798815     54.49%     54.49% # Distribution of cycle latency between the first time a load is issued and its completion (Unspecified)
system.cpu.lsq0.loadToUse::10-19                12996      0.39%     54.88% # Distribution of cycle latency between the first time a load is issued and its completion (Unspecified)
system.cpu.lsq0.loadToUse::20-29                 2732      0.08%     54.96% # Distribution of cycle latency between the first time a load is issued and its completion (Unspecified)
system.cpu.lsq0.loadToUse::30-39                12843      0.39%     55.35% # Distribution of cycle latency between the first time a load is issued and its completion (Unspecified)
system.cpu.lsq0.loadToUse::40-49                43509      1.32%     56.67% # Distribution of cycle latency between the first time a load is issued and its completion (Unspecified)
system.cpu.lsq0.loadToUse::50-59                62536      1.89%     58.56% # Distribution of cycle latency between the first time a load is issued and its completion (Unspecified)
system.cpu.lsq0.loadToUse::60-69                20596      0.62%     59.19% # Distribution of cycle latency between the first time a load is issued and its completion (Unspecified)
system.cpu.lsq0.loadToUse::70-79                  146      0.00%     59.19% # Distribution of cycle latency between the first time a load is issued and its completion (Unspecified)
[...]
system.mem_ctrls.dram.bwWrite::total        503424788                       # Write bandwidth from this memory ((Byte/Second))
system.mem_ctrls.dram.bwTotal::writebacks    503424788                       # Total bandwidth to/from this memory ((Byte/Second))
system.mem_ctrls.dram.bwTotal::cpu.inst       5099531                       # Total bandwidth to/from this memory ((Byte/Second))
system.mem_ctrls.dram.bwTotal::cpu.data    3238315536                       # Total bandwidth to/from this memory ((Byte/Second))
system.mem_ctrls.dram.bwTotal::total       3746839854                       # Total bandwidth to/from this memory ((Byte/Second))
system.mem_ctrls.dram.readBursts               729394                       # Number of DRAM read bursts (Count)
system.mem_ctrls.dram.writeBursts               10809                       # Number of DRAM write bursts (Count)
system.mem_ctrls.dram.perBankRdBursts::0       145367                       # Per bank write bursts (Count)
system.mem_ctrls.dram.perBankRdBursts::1        64184                       # Per bank write bursts (Count)
system.mem_ctrls.dram.perBankRdBursts::2        11967                       # Per bank write bursts (Count)
system.mem_ctrls.dram.perBankRdBursts::3        40021                       # Per bank write bursts (Count)
system.mem_ctrls.dram.perBankRdBursts::4         2933                       # Per bank write bursts (Count)
system.mem_ctrls.dram.perBankRdBursts::5          814                       # Per bank write bursts (Count)
system.mem_ctrls.dram.perBankRdBursts::6         9062                       # Per bank write bursts (Count)
system.mem_ctrls.dram.perBankRdBursts::7        17570                       # Per bank write bursts (Count)
system.mem_ctrls.dram.perBankRdBursts::8        25143                       # Per bank write bursts (Count)
system.mem_ctrls.dram.perBankRdBursts::9        19457                       # Per bank write bursts (Count)
system.mem_ctrls.dram.perBankRdBursts::10         2763                       # Per bank write bursts (Count)
system.mem_ctrls.dram.perBankRdBursts::11        12729                       # Per bank write bursts (Count)
system.mem_ctrls.dram.perBankRdBursts::12        11690                       # Per bank write bursts (Count)
system.mem_ctrls.dram.perBankRdBursts::13        74340                       # Per bank write bursts (Count)
system.mem_ctrls.dram.perBankRdBursts::14       145658                       # Per bank write bursts (Count)
system.mem_ctrls.dram.perBankRdBursts::15       145696                       # Per bank write bursts (Count)
system.mem_ctrls.dram.perBankWrBursts::0          512                       # Per bank write bursts (Count)
system.mem_ctrls.dram.perBankWrBursts::1          570                       # Per bank write bursts (Count)
system.mem_ctrls.dram.perBankWrBursts::2          570                       # Per bank write bursts (Count)
system.mem_ctrls.dram.perBankWrBursts::3          575                       # Per bank write bursts (Count)
system.mem_ctrls.dram.perBankWrBursts::4          556                       # Per bank write bursts (Count)
system.mem_ctrls.dram.perBankWrBursts::5          422                       # Per bank write bursts (Count)
system.mem_ctrls.dram.perBankWrBursts::6          406                       # Per bank write bursts (Count)
system.mem_ctrls.dram.perBankWrBursts::7          398                       # Per bank write bursts (Count)
system.mem_ctrls.dram.perBankWrBursts::8          448                       # Per bank write bursts (Count)
system.mem_ctrls.dram.perBankWrBursts::9          619                       # Per bank write bursts (Count)
system.mem_ctrls.dram.perBankWrBursts::10         3259                       # Per bank write bursts (Count)
system.mem_ctrls.dram.perBankWrBursts::11          312                       # Per bank write bursts (Count)
system.mem_ctrls.dram.perBankWrBursts::12          433                       # Per bank write bursts (Count)
system.mem_ctrls.dram.perBankWrBursts::13          564                       # Per bank write bursts (Count)
system.mem_ctrls.dram.perBankWrBursts::14          557                       # Per bank write bursts (Count)
system.mem_ctrls.dram.perBankWrBursts::15          608                       # Per bank write bursts (Count)
system.mem_ctrls.dram.totQLat              4107379250                       # Total ticks spent queuing (Tick)
system.mem_ctrls.dram.totBusLat            3646970000                       # Total ticks spent in databus transfers (Tick)
system.mem_ctrls.dram.totMemAccLat        17783516750                       # Total ticks spent from burst creation until serviced by the DRAM (Tick)
system.mem_ctrls.dram.avgQLat                 5631.22                       # Average queueing delay per DRAM burst ((Tick/Count))
system.mem_ctrls.dram.avgBusLat               5000.00                       # Average bus latency per DRAM burst ((Tick/Count))
system.mem_ctrls.dram.avgMemAccLat           24381.22                       # Average memory access latency per DRAM burst ((Tick/Count))
system.mem_ctrls.dram.readRowHits              651034                       # Number of row buffer hits during reads (Count)
system.mem_ctrls.dram.writeRowHits               9878                       # Number of row buffer hits during writes (Count)
system.mem_ctrls.dram.readRowHitRate            89.26                       # Row buffer hit rate for reads (Ratio)
system.mem_ctrls.dram.writeRowHitRate           91.39                       # Row buffer hit rate for writes (Ratio)
system.mem_ctrls.dram.bytesPerActivate::samples        79277                       # Bytes accessed per row activation (Byte)
system.mem_ctrls.dram.bytesPerActivate::mean   597.521702                       # Bytes accessed per row activation (Byte)
system.mem_ctrls.dram.bytesPerActivate::gmean   343.325696                       # Bytes accessed per row activation (Byte)
system.mem_ctrls.dram.bytesPerActivate::stdev   441.443182                       # Bytes accessed per row activation (Byte)
system.mem_ctrls.dram.bytesPerActivate::0-127        24742     31.21%     31.21% # Bytes accessed per row activation (Byte)
system.mem_ctrls.dram.bytesPerActivate::128-255         5218      6.58%     37.79% # Bytes accessed per row activation (Byte)
system.mem_ctrls.dram.bytesPerActivate::256-383         2046      2.58%     40.37% # Bytes accessed per row activation (Byte)
system.mem_ctrls.dram.bytesPerActivate::384-511         2299      2.90%     43.27% # Bytes accessed per row activation (Byte)
system.mem_ctrls.dram.bytesPerActivate::512-639         4110      5.18%     48.46% # Bytes accessed per row activation (Byte)
system.mem_ctrls.dram.bytesPerActivate::640-767          714      0.90%     49.36% # Bytes accessed per row activation (Byte)
system.mem_ctrls.dram.bytesPerActivate::768-895          896      1.13%     50.49% # Bytes accessed per row activation (Byte)
system.mem_ctrls.dram.bytesPerActivate::896-1023         1460      1.84%     52.33% # Bytes accessed per row activation (Byte)
system.mem_ctrls.dram.bytesPerActivate::1024-1151        37792     47.67%    100.00% # Bytes accessed per row activation (Byte)
system.mem_ctrls.dram.bytesPerActivate::total        79277                       # Bytes accessed per row activation (Byte)
system.mem_ctrls.dram.bytesRead              46681216                       # Total bytes read (Byte)
system.mem_ctrls.dram.bytesWritten             691776                       # Total bytes written (Byte)
system.mem_ctrls.dram.avgRdBW             2672.102777                       # Average DRAM read bandwidth in MiBytes/s ((Byte/Second))
system.mem_ctrls.dram.avgWrBW               39.598295                       # Average DRAM write bandwidth in MiBytes/s ((Byte/Second))
system.mem_ctrls.dram.peakBW                 12800.00                       # Theoretical peak bandwidth in MiByte/s ((Byte/Second))
system.mem_ctrls.dram.busUtil                   21.19                       # Data bus utilization in percentage (Ratio)
system.mem_ctrls.dram.busUtilRead               20.88                       # Data bus utilization in percentage for reads (Ratio)
system.mem_ctrls.dram.busUtilWrite               0.31                       # Data bus utilization in percentage for writes (Ratio)
system.mem_ctrls.dram.pageHitRate               89.29                       # Row buffer hit rate, read and write combined (Ratio)
system.mem_ctrls.dram.power_state.pwrStateResidencyTicks::UNDEFINED  17469843000                       # Cumulative time (in ticks) in various power states (Tick)
system.mem_ctrls.dram.rank0.actEnergy       286928040                       # Energy for activate commands per rank (pJ) (Joule)
system.mem_ctrls.dram.rank0.preEnergy       152479305                       # Energy for precharge commands per rank (pJ) (Joule)
system.mem_ctrls.dram.rank0.readEnergy     2084294520                       # Energy for read commands per rank (pJ) (Joule)
system.mem_ctrls.dram.rank0.writeEnergy      20926980                       # Energy for write commands per rank (pJ) (Joule)
system.mem_ctrls.dram.rank0.refreshEnergy 1378637520.000000                       # Energy for refresh commands per rank (pJ) (Joule)
system.mem_ctrls.dram.rank0.actBackEnergy   7716775710                       # Energy for active background per rank (pJ) (Joule)
system.mem_ctrls.dram.rank0.preBackEnergy    210082560                       # Energy for precharge background per rank (pJ) (Joule)
system.mem_ctrls.dram.rank0.actPowerDownEnergy            0                       # Energy for active power-down per rank (pJ) (Joule)
system.mem_ctrls.dram.rank0.prePowerDownEnergy            0                       # Energy for precharge power-down per rank (pJ) (Joule)
system.mem_ctrls.dram.rank0.selfRefreshEnergy            0                       # Energy for self refresh per rank (pJ) (Joule)
system.mem_ctrls.dram.rank0.totalEnergy   11850124635                       # Total energy per rank (pJ) (Joule)
system.mem_ctrls.dram.rank0.averagePower   678.318897                       # Core power per rank (mW) (Watt)
system.mem_ctrls.dram.rank0.totalIdleTime            0                       # Total Idle time Per DRAM Rank (Tick)
system.mem_ctrls.dram.rank0.pwrStateTime::IDLE    467871500                       # Time in different power states (Tick)
system.mem_ctrls.dram.rank0.pwrStateTime::REF    583180000                       # Time in different power states (Tick)
system.mem_ctrls.dram.rank0.pwrStateTime::SREF            0                       # Time in different power states (Tick)
system.mem_ctrls.dram.rank0.pwrStateTime::PRE_PDN            0                       # Time in different power states (Tick)
system.mem_ctrls.dram.rank0.pwrStateTime::ACT  16418791500                       # Time in different power states (Tick)
system.mem_ctrls.dram.rank0.pwrStateTime::ACT_PDN            0                       # Time in different power states (Tick)
system.mem_ctrls.dram.rank1.actEnergy       279209700                       # Energy for activate commands per rank (pJ) (Joule)
system.mem_ctrls.dram.rank1.preEnergy       148376910                       # Energy for precharge commands per rank (pJ) (Joule)
system.mem_ctrls.dram.rank1.readEnergy     3123578640                       # Energy for read commands per rank (pJ) (Joule)
system.mem_ctrls.dram.rank1.writeEnergy      35496000                       # Energy for write commands per rank (pJ) (Joule)
system.mem_ctrls.dram.rank1.refreshEnergy 1378637520.000000                       # Energy for refresh commands per rank (pJ) (Joule)
system.mem_ctrls.dram.rank1.actBackEnergy   7783218900                       # Energy for active background per rank (pJ) (Joule)
system.mem_ctrls.dram.rank1.preBackEnergy    154130400                       # Energy for precharge background per rank (pJ) (Joule)
system.mem_ctrls.dram.rank1.actPowerDownEnergy            0                       # Energy for active power-down per rank (pJ) (Joule)
system.mem_ctrls.dram.rank1.prePowerDownEnergy            0                       # Energy for precharge power-down per rank (pJ) (Joule)
system.mem_ctrls.dram.rank1.selfRefreshEnergy            0                       # Energy for self refresh per rank (pJ) (Joule)
system.mem_ctrls.dram.rank1.totalEnergy   12902648070                       # Total energy per rank (pJ) (Joule)
system.mem_ctrls.dram.rank1.averagePower   738.566916                       # Core power per rank (mW) (Watt)
system.mem_ctrls.dram.rank1.totalIdleTime            0                       # Total Idle time Per DRAM Rank (Tick)
system.mem_ctrls.dram.rank1.pwrStateTime::IDLE    336839250                       # Time in different power states (Tick)
system.mem_ctrls.dram.rank1.pwrStateTime::REF    583180000                       # Time in different power states (Tick)
system.mem_ctrls.dram.rank1.pwrStateTime::SREF            0                       # Time in different power states (Tick)
system.mem_ctrls.dram.rank1.pwrStateTime::PRE_PDN            0                       # Time in different power states (Tick)
system.mem_ctrls.dram.rank1.pwrStateTime::ACT  16549823750                       # Time in different power states (Tick)
system.mem_ctrls.dram.rank1.pwrStateTime::ACT_PDN            0                       # Time in different power states (Tick)
system.mem_ctrls.power_state.pwrStateResidencyTicks::UNDEFINED  17469843000                       # Cumulative time (in ticks) in various power states (Tick)
system.membus.transDist::ReadResp              785999                       # Transaction distribution (Count)
system.membus.transDist::WritebackDirty        137418                       # Transaction distribution (Count)
system.membus.transDist::WritebackClean           902                       # Transaction distribution (Count)
system.membus.transDist::CleanEvict            746517                       # Transaction distribution (Count)
system.membus.transDist::ReadExReq              99343                       # Transaction distribution (Count)
system.membus.transDist::ReadExResp             99343                       # Transaction distribution (Count)
system.membus.transDist::ReadCleanReq            1392                       # Transaction distribution (Count)
system.membus.transDist::ReadSharedReq         784608                       # Transaction distribution (Count)
system.membus.pktCount_system.cpu.icache.mem_side_port::system.mem_ctrls.port         3685                       # Packet count per connected requestor and responder (Count)
system.membus.pktCount_system.cpu.icache.mem_side_port::total         3685                       # Packet count per connected requestor and responder (Count)
system.membus.pktCount_system.cpu.dcache.mem_side_port::system.mem_ctrls.port      2651837                       # Packet count per connected requestor and responder (Count)
system.membus.pktCount_system.cpu.dcache.mem_side_port::total      2651837                       # Packet count per connected requestor and responder (Count)
system.membus.pktCount::total                 2655522                       # Packet count per connected requestor and responder (Count)
system.membus.pktSize_system.cpu.icache.mem_side_port::system.mem_ctrls.port       146752                       # Cumulative packet size per connected requestor and responder (Byte)
system.membus.pktSize_system.cpu.icache.mem_side_port::total       146752                       # Cumulative packet size per connected requestor and responder (Byte)
system.membus.pktSize_system.cpu.dcache.mem_side_port::system.mem_ctrls.port     65367616                       # Cumulative packet size per connected requestor and responder (Byte)
system.membus.pktSize_system.cpu.dcache.mem_side_port::total     65367616                       # Cumulative packet size per connected requestor and responder (Byte)
system.membus.pktSize::total                 65514368                       # Cumulative packet size per connected requestor and responder (Byte)
system.membus.snoops                                0                       # Total snoops (Count)
system.membus.snoopTraffic                          0                       # Total snoop traffic (Byte)
system.membus.snoopFanout::samples             885343                       # Request fanout histogram (Count)
system.membus.snoopFanout::mean              0.000003                       # Request fanout histogram (Count)
system.membus.snoopFanout::stdev             0.001841                       # Request fanout histogram (Count)
system.membus.snoopFanout::underflows               0      0.00%      0.00% # Request fanout histogram (Count)
system.membus.snoopFanout::0                   885340    100.00%    100.00% # Request fanout histogram (Count)
system.membus.snoopFanout::1                        3      0.00%    100.00% # Request fanout histogram (Count)
system.membus.snoopFanout::2                        0      0.00%    100.00% # Request fanout histogram (Count)
system.membus.snoopFanout::3                        0      0.00%    100.00% # Request fanout histogram (Count)
system.membus.snoopFanout::4                        0      0.00%    100.00% # Request fanout histogram (Count)
system.membus.snoopFanout::overflows                0      0.00%    100.00% # Request fanout histogram (Count)
system.membus.snoopFanout::min_value                0                       # Request fanout histogram (Count)
system.membus.snoopFanout::max_value                1                       # Request fanout histogram (Count)
system.membus.snoopFanout::total               885343                       # Request fanout histogram (Count)
system.membus.power_state.pwrStateResidencyTicks::UNDEFINED  17469843000                       # Cumulative time (in ticks) in various power states (Tick)
system.membus.reqLayer2.occupancy          2374252500                       # Layer occupancy (ticks) (Tick)
system.membus.reqLayer2.utilization               0.1                       # Layer utilization (Ratio)
system.membus.respLayer1.occupancy            7308736                       # Layer occupancy (ticks) (Tick)
system.membus.respLayer1.utilization              0.0                       # Layer utilization (Ratio)
system.membus.respLayer2.occupancy         4559081000                       # Layer occupancy (ticks) (Tick)
system.membus.respLayer2.utilization              0.3                       # Layer utilization (Ratio)
system.membus.snoop_filter.totRequests        1770180                       # Total number of requests made to the snoop filter. (Count)
system.membus.snoop_filter.hitSingleRequests       884837                       # Number of requests hitting in the snoop filter with a single holder of the requested data. (Count)
system.membus.snoop_filter.hitMultiRequests            3                       # Number of requests hitting in the snoop filter with multiple (>1) holders of the requested data. (Count)
system.membus.snoop_filter.totSnoops                0                       # Total number of snoops made to the snoop filter. (Count)
system.membus.snoop_filter.hitSingleSnoops            0                       # Number of snoops hitting in the snoop filter with a single holder of the requested data. (Count)
system.membus.snoop_filter.hitMultiSnoops            0                       # Number of snoops hitting in the snoop filter with multiple (>1) holders of the requested data. (Count)
system.voltage_domain.voltage                       1                       # Voltage in Volts (Volt)
system.workload.inst.arm                            0                       # number of arm instructions executed (Count)
system.workload.inst.quiesce                        0                       # number of quiesce instructions executed (Count)

---------- End Simulation Statistics   ----------
