
---------- Begin Simulation Statistics ----------
simSeconds                                   0.005502                       # Number of seconds simulated (Second)
simTicks                                   5502006000                       # Number of ticks simulated (Tick)
finalTick                                  5502006000                       # Number of ticks from beginning of simulation (restored from checkpoints and never reset) (Tick)
simFreq                                  1000000000000                       # The number of ticks per simulated second ((Tick/Second))
hostSeconds                                     31.27                       # Real time elapsed on the host (Second)
hostTickRate                                175962554                       # The number of ticks simulated per host second (ticks/s) ((Tick/Second))
hostMemory                                     664888                       # Number of bytes of host memory used (Byte)
simInsts                                     16640805                       # Number of instructions simulated (Count)
simOps                                       33764884                       # Number of ops (including micro ops) simulated (Count)
hostInstRate                                   532198                       # Simulator instruction rate (inst/s) ((Count/Second))
hostOpRate                                    1079851                       # Simulator op (including micro ops) rate (op/s) ((Count/Second))
system.clk_domain.clock                          1000                       # Clock period in ticks (Tick)
system.cpu.numCycles                         11004013                       # Number of cpu cycles simulated (Cycle)
system.cpu.numWorkItemsStarted                      0                       # Number of work items this cpu started (Count)
system.cpu.numWorkItemsCompleted                    0                       # Number of work items this cpu completed (Count)
system.cpu.instsAdded                        35780472                       # Number of instructions added to the IQ (excludes non-spec) (Count)
system.cpu.nonSpecInstsAdded                       39                       # Number of non-speculative instructions added to the IQ (Count)
system.cpu.instsIssued                       34897883                       # Number of instructions issued (Count)
system.cpu.squashedInstsIssued                  12010                       # Number of squashed instructions issued (Count)
system.cpu.squashedInstsExamined              2015621                       # Number of squashed instructions iterated over during squash; mainly for profiling (Count)
system.cpu.squashedOperandsExamined           4034077                       # Number of squashed operands that are examined and possibly removed from graph (Count)
system.cpu.squashedNonSpecRemoved                  21                       # Number of squashed non-spec instructions that were removed (Count)
system.cpu.numIssuedDist::samples            10949796                       # Number of insts issued each cycle (Count)
system.cpu.numIssuedDist::mean               3.187081                       # Number of insts issued each cycle (Count)
system.cpu.numIssuedDist::stdev              2.153762                       # Number of insts issued each cycle (Count)
system.cpu.numIssuedDist::underflows                0      0.00%      0.00% # Number of insts issued each cycle (Count)
system.cpu.numIssuedDist::0                   1671519     15.27%     15.27% # Number of insts issued each cycle (Count)
system.cpu.numIssuedDist::1                   1283578     11.72%     26.99% # Number of insts issued each cycle (Count)
system.cpu.numIssuedDist::2                   1316487     12.02%     39.01% # Number of insts issued each cycle (Count)
system.cpu.numIssuedDist::3                   1449204     13.23%     52.25% # Number of insts issued each cycle (Count)
system.cpu.numIssuedDist::4                   2133269     19.48%     71.73% # Number of insts issued each cycle (Count)
system.cpu.numIssuedDist::5                   1343236     12.27%     84.00% # Number of insts issued each cycle (Count)
system.cpu.numIssuedDist::6                   1041380      9.51%     93.51% # Number of insts issued each cycle (Count)
system.cpu.numIssuedDist::7                    552801      5.05%     98.55% # Number of insts issued each cycle (Count)
system.cpu.numIssuedDist::8                    158322      1.45%    100.00% # Number of insts issued each cycle (Count)
system.cpu.numIssuedDist::overflows                 0      0.00%    100.00% # Number of insts issued each cycle (Count)
system.cpu.numIssuedDist::min_value                 0                       # Number of insts issued each cycle (Count)
system.cpu.numIssuedDist::max_value                 8                       # Number of insts issued each cycle (Count)
system.cpu.numIssuedDist::total              10949796                       # Number of insts issued each cycle (Count)
system.cpu.statFuBusy::No_OpClass                   0      0.00%      0.00% # attempts to use FU when none available (Count)
system.cpu.statFuBusy::IntAlu                  481250     90.85%     90.85% # attempts to use FU when none available (Count)
system.cpu.statFuBusy::IntMult                      0      0.00%     90.85% # attempts to use FU when none available (Count)
system.cpu.statFuBusy::IntDiv                       0      0.00%     90.85% # attempts to use FU when none available (Count)
system.cpu.statFuBusy::FloatAdd                     0      0.00%     90.85% # attempts to use FU when none available (Count)
system.cpu.statFuBusy::FloatCmp                     0      0.00%     90.85% # attempts to use FU when none available (Count)
system.cpu.statFuBusy::FloatCvt                     0      0.00%     90.85% # attempts to use FU when none available (Count)
system.cpu.statFuBusy::FloatMult                    0      0.00%     90.85% # attempts to use FU when none available (Count)
system.cpu.statFuBusy::FloatMultAcc                 0      0.00%     90.85% # attempts to use FU when none available (Count)
system.cpu.statFuBusy::FloatDiv                     0      0.00%     90.85% # attempts to use FU when none available (Count)
system.cpu.statFuBusy::FloatMisc                    0      0.00%     90.85% # attempts to use FU when none available (Count)
system.cpu.statFuBusy::FloatSqrt                    0      0.00%     90.85% # attempts to use FU when none available (Count)
system.cpu.statFuBusy::SimdAdd                      0      0.00%     90.85% # attempts to use FU when none available (Count)
system.cpu.statFuBusy::SimdAddAcc                   0      0.00%     90.85% # attempts to use FU when none available (Count)
system.cpu.statFuBusy::SimdAlu                  16907      3.19%     94.04% # attempts to use FU when none available (Count)
system.cpu.statFuBusy::SimdCmp                      0      0.00%     94.04% # attempts to use FU when none available (Count)
system.cpu.statFuBusy::SimdCvt                     64      0.01%     94.05% # attempts to use FU when none available (Count)
system.cpu.statFuBusy::SimdMisc                  6017      1.14%     95.18% # attempts to use FU when none available (Count)
system.cpu.statFuBusy::SimdMult                     0      0.00%     95.18% # attempts to use FU when none available (Count)
system.cpu.statFuBusy::SimdMultAcc                  0      0.00%     95.18% # attempts to use FU when none available (Count)
system.cpu.statFuBusy::SimdShift                    0      0.00%     95.18% # attempts to use FU when none available (Count)
system.cpu.statFuBusy::SimdShiftAcc                 0      0.00%     95.18% # attempts to use FU when none available (Count)
system.cpu.statFuBusy::SimdDiv                      0      0.00%     95.18% # attempts to use FU when none available (Count)
system.cpu.statFuBusy::SimdSqrt                     0      0.00%     95.18% # attempts to use FU when none available (Count)
system.cpu.statFuBusy::SimdFloatAdd              6129      1.16%     96.34% # attempts to use FU when none available (Count)
system.cpu.statFuBusy::SimdFloatAlu                 0      0.00%     96.34% # attempts to use FU when none available (Count)
system.cpu.statFuBusy::SimdFloatCmp                 0      0.00%     96.34% # attempts to use FU when none available (Count)
system.cpu.statFuBusy::SimdFloatCvt                 0      0.00%     96.34% # attempts to use FU when none available (Count)
system.cpu.statFuBusy::SimdFloatDiv                 0      0.00%     96.34% # attempts to use FU when none available (Count)
system.cpu.statFuBusy::SimdFloatMisc                0      0.00%     96.34% # attempts to use FU when none available (Count)
system.cpu.statFuBusy::SimdFloatMult                0      0.00%     96.34% # attempts to use FU when none available (Count)
system.cpu.statFuBusy::SimdFloatMultAcc             0      0.00%     96.34% # attempts to use FU when none available (Count)
system.cpu.statFuBusy::SimdFloatSqrt                0      0.00%     96.34% # attempts to use FU when none available (Count)
system.cpu.statFuBusy::SimdReduceAdd                0      0.00%     96.34% # attempts to use FU when none available (Count)
system.cpu.statFuBusy::SimdReduceAlu                0      0.00%     96.34% # attempts to use FU when none available (Count)
system.cpu.statFuBusy::SimdReduceCmp                0      0.00%     96.34% # attempts to use FU when none available (Count)
system.cpu.statFuBusy::SimdFloatReduceAdd            0      0.00%     96.34% # attempts to use FU when none available (Count)
system.cpu.statFuBusy::SimdFloatReduceCmp            0      0.00%     96.34% # attempts to use FU when none available (Count)
system.cpu.statFuBusy::SimdAes                      0      0.00%     96.34% # attempts to use FU when none available (Count)
system.cpu.statFuBusy::SimdAesMix                   0      0.00%     96.34% # attempts to use FU when none available (Count)
system.cpu.statFuBusy::SimdSha1Hash                 0      0.00%     96.34% # attempts to use FU when none available (Count)
system.cpu.statFuBusy::SimdSha1Hash2                0      0.00%     96.34% # attempts to use FU when none available (Count)
system.cpu.statFuBusy::SimdSha256Hash               0      0.00%     96.34% # attempts to use FU when none available (Count)
system.cpu.statFuBusy::SimdSha256Hash2              0      0.00%     96.34% # attempts to use FU when none available (Count)
system.cpu.statFuBusy::SimdShaSigma2                0      0.00%     96.34% # attempts to use FU when none available (Count)
system.cpu.statFuBusy::SimdShaSigma3                0      0.00%     96.34% # attempts to use FU when none available (Count)
system.cpu.statFuBusy::SimdPredAlu                  0      0.00%     96.34% # attempts to use FU when none available (Count)
system.cpu.statFuBusy::MemRead                   7455      1.41%     97.75% # attempts to use FU when none available (Count)
system.cpu.statFuBusy::MemWrite                  1141      0.22%     97.96% # attempts to use FU when none available (Count)
system.cpu.statFuBusy::FloatMemRead             10309      1.95%     99.91% # attempts to use FU when none available (Count)
system.cpu.statFuBusy::FloatMemWrite              474      0.09%    100.00% # attempts to use FU when none available (Count)
system.cpu.statFuBusy::IprAccess                    0      0.00%    100.00% # attempts to use FU when none available (Count)
system.cpu.statFuBusy::InstPrefetch                 0      0.00%    100.00% # attempts to use FU when none available (Count)
system.cpu.statIssuedInstType_0::No_OpClass       354484      1.02%      1.02% # Number of instructions issued per FU type, per thread (Count)
system.cpu.statIssuedInstType_0::IntAlu      26678719     76.45%     77.46% # Number of instructions issued per FU type, per thread (Count)
system.cpu.statIssuedInstType_0::IntMult         3421      0.01%     77.47% # Number of instructions issued per FU type, per thread (Count)
system.cpu.statIssuedInstType_0::IntDiv        305384      0.88%     78.35% # Number of instructions issued per FU type, per thread (Count)
system.cpu.statIssuedInstType_0::FloatAdd       616042      1.77%     80.11% # Number of instructions issued per FU type, per thread (Count)
system.cpu.statIssuedInstType_0::FloatCmp            0      0.00%     80.11% # Number of instructions issued per FU type, per thread (Count)
system.cpu.statIssuedInstType_0::FloatCvt            0      0.00%     80.11% # Number of instructions issued per FU type, per thread (Count)
system.cpu.statIssuedInstType_0::FloatMult            0      0.00%     80.11% # Number of instructions issued per FU type, per thread (Count)
system.cpu.statIssuedInstType_0::FloatMultAcc            0      0.00%     80.11% # Number of instructions issued per FU type, per thread (Count)
system.cpu.statIssuedInstType_0::FloatDiv            0      0.00%     80.11% # Number of instructions issued per FU type, per thread (Count)
system.cpu.statIssuedInstType_0::FloatMisc            0      0.00%     80.11% # Number of instructions issued per FU type, per thread (Count)
system.cpu.statIssuedInstType_0::FloatSqrt            0      0.00%     80.11% # Number of instructions issued per FU type, per thread (Count)
system.cpu.statIssuedInstType_0::SimdAdd            0      0.00%     80.11% # Number of instructions issued per FU type, per thread (Count)
system.cpu.statIssuedInstType_0::SimdAddAcc            0      0.00%     80.11% # Number of instructions issued per FU type, per thread (Count)
system.cpu.statIssuedInstType_0::SimdAlu       136613      0.39%     80.51% # Number of instructions issued per FU type, per thread (Count)
system.cpu.statIssuedInstType_0::SimdCmp          202      0.00%     80.51% # Number of instructions issued per FU type, per thread (Count)
system.cpu.statIssuedInstType_0::SimdCvt        84832      0.24%     80.75% # Number of instructions issued per FU type, per thread (Count)
system.cpu.statIssuedInstType_0::SimdMisc        95020      0.27%     81.02% # Number of instructions issued per FU type, per thread (Count)
system.cpu.statIssuedInstType_0::SimdMult            0      0.00%     81.02% # Number of instructions issued per FU type, per thread (Count)
system.cpu.statIssuedInstType_0::SimdMultAcc            0      0.00%     81.02% # Number of instructions issued per FU type, per thread (Count)
system.cpu.statIssuedInstType_0::SimdShift            0      0.00%     81.02% # Number of instructions issued per FU type, per thread (Count)
system.cpu.statIssuedInstType_0::SimdShiftAcc            0      0.00%     81.02% # Number of instructions issued per FU type, per thread (Count)
system.cpu.statIssuedInstType_0::SimdDiv            0      0.00%     81.02% # Number of instructions issued per FU type, per thread (Count)
system.cpu.statIssuedInstType_0::SimdSqrt            0      0.00%     81.02% # Number of instructions issued per FU type, per thread (Count)
system.cpu.statIssuedInstType_0::SimdFloatAdd      1155694      3.31%     84.33% # Number of instructions issued per FU type, per thread (Count)
system.cpu.statIssuedInstType_0::SimdFloatAlu            0      0.00%     84.33% # Number of instructions issued per FU type, per thread (Count)
system.cpu.statIssuedInstType_0::SimdFloatCmp       569270      1.63%     85.96% # Number of instructions issued per FU type, per thread (Count)
system.cpu.statIssuedInstType_0::SimdFloatCvt         8822      0.03%     85.99% # Number of instructions issued per FU type, per thread (Count)
system.cpu.statIssuedInstType_0::SimdFloatDiv            0      0.00%     85.99% # Number of instructions issued per FU type, per thread (Count)
system.cpu.statIssuedInstType_0::SimdFloatMisc            0      0.00%     85.99% # Number of instructions issued per FU type, per thread (Count)
system.cpu.statIssuedInstType_0::SimdFloatMult            0      0.00%     85.99% # Number of instructions issued per FU type, per thread (Count)
system.cpu.statIssuedInstType_0::SimdFloatMultAcc            0      0.00%     85.99% # Number of instructions issued per FU type, per thread (Count)
system.cpu.statIssuedInstType_0::SimdFloatSqrt            0      0.00%     85.99% # Number of instructions issued per FU type, per thread (Count)
system.cpu.statIssuedInstType_0::SimdReduceAdd            0      0.00%     85.99% # Number of instructions issued per FU type, per thread (Count)
system.cpu.statIssuedInstType_0::SimdReduceAlu            0      0.00%     85.99% # Number of instructions issued per FU type, per thread (Count)
system.cpu.statIssuedInstType_0::SimdReduceCmp            0      0.00%     85.99% # Number of instructions issued per FU type, per thread (Count)
system.cpu.statIssuedInstType_0::SimdFloatReduceAdd            0      0.00%     85.99% # Number of instructions issued per FU type, per thread (Count)
system.cpu.statIssuedInstType_0::SimdFloatReduceCmp            0      0.00%     85.99% # Number of instructions issued per FU type, per thread (Count)
system.cpu.statIssuedInstType_0::SimdAes            0      0.00%     85.99% # Number of instructions issued per FU type, per thread (Count)
system.cpu.statIssuedInstType_0::SimdAesMix            0      0.00%     85.99% # Number of instructions issued per FU type, per thread (Count)
system.cpu.statIssuedInstType_0::SimdSha1Hash            0      0.00%     85.99% # Number of instructions issued per FU type, per thread (Count)
system.cpu.statIssuedInstType_0::SimdSha1Hash2            0      0.00%     85.99% # Number of instructions issued per FU type, per thread (Count)
system.cpu.statIssuedInstType_0::SimdSha256Hash            0      0.00%     85.99% # Number of instructions issued per FU type, per thread (Count)
system.cpu.statIssuedInstType_0::SimdSha256Hash2            0      0.00%     85.99% # Number of instructions issued per FU type, per thread (Count)
system.cpu.statIssuedInstType_0::SimdShaSigma2            0      0.00%     85.99% # Number of instructions issued per FU type, per thread (Count)
system.cpu.statIssuedInstType_0::SimdShaSigma3            0      0.00%     85.99% # Number of instructions issued per FU type, per thread (Count)
system.cpu.statIssuedInstType_0::SimdPredAlu            0      0.00%     85.99% # Number of instructions issued per FU type, per thread (Count)
system.cpu.statIssuedInstType_0::MemRead      2114161      6.06%     92.05% # Number of instructions issued per FU type, per thread (Count)
system.cpu.statIssuedInstType_0::MemWrite      1437756      4.12%     96.17% # Number of instructions issued per FU type, per thread (Count)
system.cpu.statIssuedInstType_0::FloatMemRead      1298814      3.72%     99.89% # Number of instructions issued per FU type, per thread (Count)
system.cpu.statIssuedInstType_0::FloatMemWrite        38649      0.11%    100.00% # Number of instructions issued per FU type, per thread (Count)
system.cpu.statIssuedInstType_0::IprAccess            0      0.00%    100.00% # Number of instructions issued per FU type, per thread (Count)
system.cpu.statIssuedInstType_0::InstPrefetch            0      0.00%    100.00% # Number of instructions issued per FU type, per thread (Count)
system.cpu.statIssuedInstType_0::total       34897883                       # Number of instructions issued per FU type, per thread (Count)
system.cpu.issueRate                         3.171378                       # Inst issue rate ((Count/Cycle))
system.cpu.fuBusy                              529746                       # FU busy when requested (Count)
system.cpu.fuBusyRate                        0.015180                       # FU busy rate (busy events/executed inst) ((Count/Count))
system.cpu.intInstQueueReads                 70941694                       # Number of integer instruction queue reads (Count)
system.cpu.intInstQueueWrites                32525551                       # Number of integer instruction queue writes (Count)
system.cpu.intInstQueueWakeupAccesses        29537663                       # Number of integer instruction queue wakeup accesses (Count)
system.cpu.fpInstQueueReads                  10345624                       # Number of floating instruction queue reads (Count)
system.cpu.fpInstQueueWrites                  5270621                       # Number of floating instruction queue writes (Count)
system.cpu.fpInstQueueWakeupAccesses          5109246                       # Number of floating instruction queue wakeup accesses (Count)
system.cpu.vecInstQueueReads                        0                       # Number of vector instruction queue reads (Count)
system.cpu.vecInstQueueWrites                       0                       # Number of vector instruction queue writes (Count)
system.cpu.vecInstQueueWakeupAccesses               0                       # Number of vector instruction queue wakeup accesses (Count)
system.cpu.intAluAccesses                    29880429                       # Number of integer alu accesses (Count)
system.cpu.fpAluAccesses                      5192716                       # Number of floating point alu accesses (Count)
system.cpu.vecAluAccesses                           0                       # Number of vector alu accesses (Count)
system.cpu.numInsts                          34698604                       # Number of executed instructions (Count)
system.cpu.numLoadInsts                       3382821                       # Number of load instructions executed (Count)
system.cpu.numSquashedInsts                    199279                       # Number of squashed instructions skipped in execute (Count)
system.cpu.numSwp                                   0                       # Number of swp insts executed (Count)
system.cpu.numNop                                   0                       # Number of nop insts executed (Count)
system.cpu.numRefs                            4847928                       # Number of memory reference insts executed (Count)
system.cpu.numBranches                        3842878                       # Number of branches executed (Count)
system.cpu.numStoreInsts                      1465107                       # Number of stores executed (Count)
system.cpu.numRate                           3.153268                       # Inst execution rate ((Count/Cycle))
system.cpu.timesIdled                             597                       # Number of times that the entire CPU went into an idle state and unscheduled itself (Count)
system.cpu.idleCycles                           54217                       # Total number of cycles that the CPU has spent unscheduled due to idling (Cycle)
system.cpu.committedInsts                    16640805                       # Number of Instructions Simulated (Count)
system.cpu.committedOps                      33764884                       # Number of Ops (including micro ops) Simulated (Count)
system.cpu.cpi                               0.661267                       # CPI: Cycles Per Instruction ((Cycle/Count))
system.cpu.totalCpi                          0.661267                       # CPI: Total CPI of All Threads ((Cycle/Count))
system.cpu.ipc                               1.512249                       # IPC: Instructions Per Cycle ((Count/Cycle))
system.cpu.totalIpc                          1.512249                       # IPC: Total IPC of All Threads ((Count/Cycle))
system.cpu.intRegfileReads                   46355757                       # Number of integer regfile reads (Count)
system.cpu.intRegfileWrites                  24615920                       # Number of integer regfile writes (Count)
system.cpu.fpRegfileReads                     8136780                       # Number of floating regfile reads (Count)
system.cpu.fpRegfileWrites                    4987754                       # Number of floating regfile writes (Count)
system.cpu.ccRegfileReads                    21135258                       # number of cc regfile reads (Count)
system.cpu.ccRegfileWrites                   11900534                       # number of cc regfile writes (Count)
system.cpu.miscRegfileReads                  11157684                       # number of misc regfile reads (Count)
system.cpu.MemDepUnit__0.insertedLoads        3410934                       # Number of loads inserted to the mem dependence unit. (Count)
system.cpu.MemDepUnit__0.insertedStores       1530743                       # Number of stores inserted to the mem dependence unit. (Count)
system.cpu.MemDepUnit__0.conflictingLoads        17548                       # Number of conflicting loads. (Count)
system.cpu.MemDepUnit__0.conflictingStores          107                       # Number of conflicting stores. (Count)
system.cpu.MemDepUnit__1.insertedLoads              0                       # Number of loads inserted to the mem dependence unit. (Count)
system.cpu.MemDepUnit__1.insertedStores             0                       # Number of stores inserted to the mem dependence unit. (Count)
system.cpu.MemDepUnit__1.conflictingLoads            0                       # Number of conflicting loads. (Count)
system.cpu.MemDepUnit__1.conflictingStores            0                       # Number of conflicting stores. (Count)
system.cpu.MemDepUnit__2.insertedLoads              0                       # Number of loads inserted to the mem dependence unit. (Count)
system.cpu.MemDepUnit__2.insertedStores             0                       # Number of stores inserted to the mem dependence unit. (Count)
system.cpu.MemDepUnit__2.conflictingLoads            0                       # Number of conflicting loads. (Count)
system.cpu.MemDepUnit__2.conflictingStores            0                       # Number of conflicting stores. (Count)
system.cpu.MemDepUnit__3.insertedLoads              0                       # Number of loads inserted to the mem dependence unit. (Count)
system.cpu.MemDepUnit__3.insertedStores             0                       # Number of stores inserted to the mem dependence unit. (Count)
system.cpu.MemDepUnit__3.conflictingLoads            0                       # Number of conflicting loads. (Count)
system.cpu.MemDepUnit__3.conflictingStores            0                       # Number of conflicting stores. (Count)
system.cpu.branchPred.lookups                 4429042                       # Number of BP lookups (Count)
system.cpu.branchPred.condPredicted           3962378                       # Number of conditional branches predicted (Count)
system.cpu.branchPred.condIncorrect             77605                       # Number of conditional branches incorrect (Count)
system.cpu.branchPred.BTBLookups              3076253                       # Number of BTB lookups (Count)
system.cpu.branchPred.BTBHits                 3032245                       # Number of BTB hits (Count)
system.cpu.branchPred.BTBHitRatio            0.985694                       # BTB Hit Ratio (Ratio)
system.cpu.branchPred.RASUsed                  148692                       # Number of times the RAS was used to get a target. (Count)
system.cpu.branchPred.RASIncorrect                  2                       # Number of incorrect RAS predictions. (Count)
system.cpu.branchPred.indirectLookups           52920                       # Number of indirect predictor lookups. (Count)
system.cpu.branchPred.indirectHits              52200                       # Number of indirect target hits. (Count)
system.cpu.branchPred.indirectMisses              720                       # Number of indirect misses. (Count)
system.cpu.branchPred.indirectMispredicted          165                       # Number of mispredicted indirect branches. (Count)
system.cpu.commit.commitSquashedInsts         2007673                       # The number of squashed insts skipped by commit (Count)
system.cpu.commit.commitNonSpecStalls              18                       # The number of times commit has been forced to stall to communicate backwards (Count)
system.cpu.commit.branchMispredicts             77304                       # The number of times a branch was mispredicted (Count)
system.cpu.commit.numCommittedDist::samples     10671544                       # Number of insts commited each cycle (Count)
system.cpu.commit.numCommittedDist::mean     3.164011                       # Number of insts commited each cycle (Count)
system.cpu.commit.numCommittedDist::stdev     2.920998                       # Number of insts commited each cycle (Count)
system.cpu.commit.numCommittedDist::underflows            0      0.00%      0.00% # Number of insts commited each cycle (Count)
system.cpu.commit.numCommittedDist::0         2042200     19.14%     19.14% # Number of insts commited each cycle (Count)
system.cpu.commit.numCommittedDist::1         2610444     24.46%     43.60% # Number of insts commited each cycle (Count)
system.cpu.commit.numCommittedDist::2          983576      9.22%     52.82% # Number of insts commited each cycle (Count)
system.cpu.commit.numCommittedDist::3         1164498     10.91%     63.73% # Number of insts commited each cycle (Count)
system.cpu.commit.numCommittedDist::4          660203      6.19%     69.91% # Number of insts commited each cycle (Count)
system.cpu.commit.numCommittedDist::5          645696      6.05%     75.96% # Number of insts commited each cycle (Count)
system.cpu.commit.numCommittedDist::6          211004      1.98%     77.94% # Number of insts commited each cycle (Count)
system.cpu.commit.numCommittedDist::7          272906      2.56%     80.50% # Number of insts commited each cycle (Count)
system.cpu.commit.numCommittedDist::8         2081017     19.50%    100.00% # Number of insts commited each cycle (Count)
system.cpu.commit.numCommittedDist::overflows            0      0.00%    100.00% # Number of insts commited each cycle (Count)
system.cpu.commit.numCommittedDist::min_value            0                       # Number of insts commited each cycle (Count)
system.cpu.commit.numCommittedDist::max_value            8                       # Number of insts commited each cycle (Count)
system.cpu.commit.numCommittedDist::total     10671544                       # Number of insts commited each cycle (Count)
system.cpu.commit.instsCommitted             16640805                       # Number of instructions committed (Count)
system.cpu.commit.opsCommitted               33764884                       # Number of ops (including micro ops) committed (Count)
system.cpu.commit.memRefs                     4726504                       # Number of memory references committed (Count)
system.cpu.commit.loads                       3301364                       # Number of loads committed (Count)
system.cpu.commit.amos                              0                       # Number of atomic instructions committed (Count)
system.cpu.commit.membars                          12                       # Number of memory barriers committed (Count)
system.cpu.commit.branches                    3732316                       # Number of branches committed (Count)
system.cpu.commit.vectorInstructions                0                       # Number of committed Vector instructions. (Count)
system.cpu.commit.floating                    5098067                       # Number of committed floating point instructions. (Count)
system.cpu.commit.integer                    29054172                       # Number of committed integer instructions. (Count)
system.cpu.commit.functionCalls                132671                       # Number of function calls committed. (Count)
system.cpu.commit.committedInstType_0::No_OpClass       348373      1.03%      1.03% # Class of committed instruction (Count)
system.cpu.commit.committedInstType_0::IntAlu     25750640     76.26%     77.30% # Class of committed instruction (Count)
system.cpu.commit.committedInstType_0::IntMult         3370      0.01%     77.31% # Class of committed instruction (Count)
system.cpu.commit.committedInstType_0::IntDiv       281844      0.83%     78.14% # Class of committed instruction (Count)
system.cpu.commit.committedInstType_0::FloatAdd       604515      1.79%     79.93% # Class of committed instruction (Count)
system.cpu.commit.committedInstType_0::FloatCmp            0      0.00%     79.93% # Class of committed instruction (Count)
system.cpu.commit.committedInstType_0::FloatCvt            0      0.00%     79.93% # Class of committed instruction (Count)
system.cpu.commit.committedInstType_0::FloatMult            0      0.00%     79.93% # Class of committed instruction (Count)
system.cpu.commit.committedInstType_0::FloatMultAcc            0      0.00%     79.93% # Class of committed instruction (Count)
system.cpu.commit.committedInstType_0::FloatDiv            0      0.00%     79.93% # Class of committed instruction (Count)
system.cpu.commit.committedInstType_0::FloatMisc            0      0.00%     79.93% # Class of committed instruction (Count)
system.cpu.commit.committedInstType_0::FloatSqrt            0      0.00%     79.93% # Class of committed instruction (Count)
system.cpu.commit.committedInstType_0::SimdAdd            0      0.00%     79.93% # Class of committed instruction (Count)
system.cpu.commit.committedInstType_0::SimdAddAcc            0      0.00%     79.93% # Class of committed instruction (Count)
system.cpu.commit.committedInstType_0::SimdAlu       136148      0.40%     80.33% # Class of committed instruction (Count)
system.cpu.commit.committedInstType_0::SimdCmp          198      0.00%     80.34% # Class of committed instruction (Count)
system.cpu.commit.committedInstType_0::SimdCvt        84636      0.25%     80.59% # Class of committed instruction (Count)
system.cpu.commit.committedInstType_0::SimdMisc        94927      0.28%     80.87% # Class of committed instruction (Count)
system.cpu.commit.committedInstType_0::SimdMult            0      0.00%     80.87% # Class of committed instruction (Count)
system.cpu.commit.committedInstType_0::SimdMultAcc            0      0.00%     80.87% # Class of committed instruction (Count)
system.cpu.commit.committedInstType_0::SimdShift            0      0.00%     80.87% # Class of committed instruction (Count)
system.cpu.commit.committedInstType_0::SimdShiftAcc            0      0.00%     80.87% # Class of committed instruction (Count)
system.cpu.commit.committedInstType_0::SimdDiv            0      0.00%     80.87% # Class of committed instruction (Count)
system.cpu.commit.committedInstType_0::SimdSqrt            0      0.00%     80.87% # Class of committed instruction (Count)
system.cpu.commit.committedInstType_0::SimdFloatAdd      1155641      3.42%     84.29% # Class of committed instruction (Count)
system.cpu.commit.committedInstType_0::SimdFloatAlu            0      0.00%     84.29% # Class of committed instruction (Count)
system.cpu.commit.committedInstType_0::SimdFloatCmp       569268      1.69%     85.98% # Class of committed instruction (Count)
system.cpu.commit.committedInstType_0::SimdFloatCvt         8820      0.03%     86.00% # Class of committed instruction (Count)
system.cpu.commit.committedInstType_0::SimdFloatDiv            0      0.00%     86.00% # Class of committed instruction (Count)
system.cpu.commit.committedInstType_0::SimdFloatMisc            0      0.00%     86.00% # Class of committed instruction (Count)
system.cpu.commit.committedInstType_0::SimdFloatMult            0      0.00%     86.00% # Class of committed instruction (Count)
system.cpu.commit.committedInstType_0::SimdFloatMultAcc            0      0.00%     86.00% # Class of committed instruction (Count)
system.cpu.commit.committedInstType_0::SimdFloatSqrt            0      0.00%     86.00% # Class of committed instruction (Count)
system.cpu.commit.committedInstType_0::SimdReduceAdd            0      0.00%     86.00% # Class of committed instruction (Count)
system.cpu.commit.committedInstType_0::SimdReduceAlu            0      0.00%     86.00% # Class of committed instruction (Count)
system.cpu.commit.committedInstType_0::SimdReduceCmp            0      0.00%     86.00% # Class of committed instruction (Count)
system.cpu.commit.committedInstType_0::SimdFloatReduceAdd            0      0.00%     86.00% # Class of committed instruction (Count)
system.cpu.commit.committedInstType_0::SimdFloatReduceCmp            0      0.00%     86.00% # Class of committed instruction (Count)
system.cpu.commit.committedInstType_0::SimdAes            0      0.00%     86.00% # Class of committed instruction (Count)
system.cpu.commit.committedInstType_0::SimdAesMix            0      0.00%     86.00% # Class of committed instruction (Count)
system.cpu.commit.committedInstType_0::SimdSha1Hash            0      0.00%     86.00% # Class of committed instruction (Count)
system.cpu.commit.committedInstType_0::SimdSha1Hash2            0      0.00%     86.00% # Class of committed instruction (Count)
system.cpu.commit.committedInstType_0::SimdSha256Hash            0      0.00%     86.00% # Class of committed instruction (Count)
system.cpu.commit.committedInstType_0::SimdSha256Hash2            0      0.00%     86.00% # Class of committed instruction (Count)
system.cpu.commit.committedInstType_0::SimdShaSigma2            0      0.00%     86.00% # Class of committed instruction (Count)
system.cpu.commit.committedInstType_0::SimdShaSigma3            0      0.00%     86.00% # Class of committed instruction (Count)
system.cpu.commit.committedInstType_0::SimdPredAlu            0      0.00%     86.00% # Class of committed instruction (Count)
system.cpu.commit.committedInstType_0::MemRead      2034690      6.03%     92.03% # Class of committed instruction (Count)
system.cpu.commit.committedInstType_0::MemWrite      1387717      4.11%     96.14% # Class of committed instruction (Count)
system.cpu.commit.committedInstType_0::FloatMemRead      1266674      3.75%     99.89% # Class of committed instruction (Count)
system.cpu.commit.committedInstType_0::FloatMemWrite        37423      0.11%    100.00% # Class of committed instruction (Count)
system.cpu.commit.committedInstType_0::IprAccess            0      0.00%    100.00% # Class of committed instruction (Count)
system.cpu.commit.committedInstType_0::InstPrefetch            0      0.00%    100.00% # Class of committed instruction (Count)
system.cpu.commit.committedInstType_0::total     33764884                       # Class of committed instruction (Count)
system.cpu.commit.commitEligibleSamples       2081017                       # number cycles where commit BW limit reached (Cycle)
system.cpu.dcache.demandHits::cpu.data        4587435                       # number of demand (read+write) hits (Count)
system.cpu.dcache.demandHits::total           4587435                       # number of demand (read+write) hits (Count)
system.cpu.dcache.overallHits::cpu.data       4587435                       # number of overall hits (Count)
system.cpu.dcache.overallHits::total          4587435                       # number of overall hits (Count)
system.cpu.dcache.demandMisses::cpu.data        25007                       # number of demand (read+write) misses (Count)
system.cpu.dcache.demandMisses::total           25007                       # number of demand (read+write) misses (Count)
system.cpu.dcache.overallMisses::cpu.data        25007                       # number of overall misses (Count)
system.cpu.dcache.overallMisses::total          25007                       # number of overall misses (Count)
system.cpu.dcache.demandMissLatency::cpu.data   1353328493                       # number of demand (read+write) miss ticks (Tick)
system.cpu.dcache.demandMissLatency::total   1353328493                       # number of demand (read+write) miss ticks (Tick)
system.cpu.dcache.overallMissLatency::cpu.data   1353328493                       # number of overall miss ticks (Tick)
system.cpu.dcache.overallMissLatency::total   1353328493                       # number of overall miss ticks (Tick)
system.cpu.dcache.demandAccesses::cpu.data      4612442                       # number of demand (read+write) accesses (Count)
system.cpu.dcache.demandAccesses::total       4612442                       # number of demand (read+write) accesses (Count)
system.cpu.dcache.overallAccesses::cpu.data      4612442                       # number of overall (read+write) accesses (Count)
system.cpu.dcache.overallAccesses::total      4612442                       # number of overall (read+write) accesses (Count)
system.cpu.dcache.demandMissRate::cpu.data     0.005422                       # miss rate for demand accesses (Ratio)
system.cpu.dcache.demandMissRate::total      0.005422                       # miss rate for demand accesses (Ratio)
system.cpu.dcache.overallMissRate::cpu.data     0.005422                       # miss rate for overall accesses (Ratio)
system.cpu.dcache.overallMissRate::total     0.005422                       # miss rate for overall accesses (Ratio)
system.cpu.dcache.demandAvgMissLatency::cpu.data 54117.986684                       # average overall miss latency ((Cycle/Count))
system.cpu.dcache.demandAvgMissLatency::total 54117.986684                       # average overall miss latency ((Cycle/Count))
system.cpu.dcache.overallAvgMissLatency::cpu.data 54117.986684                       # average overall miss latency ((Cycle/Count))
system.cpu.dcache.overallAvgMissLatency::total 54117.986684                       # average overall miss latency ((Cycle/Count))
system.cpu.dcache.blockedCycles::no_mshrs        25987                       # number of cycles access was blocked (Cycle)
system.cpu.dcache.blockedCycles::no_targets            0                       # number of cycles access was blocked (Cycle)
system.cpu.dcache.blockedCauses::no_mshrs          637                       # number of times access was blocked (Count)
system.cpu.dcache.blockedCauses::no_targets            0                       # number of times access was blocked (Count)
system.cpu.dcache.avgBlocked::no_mshrs      40.795918                       # average number of cycles each access was blocked ((Cycle/Count))
system.cpu.dcache.avgBlocked::no_targets          nan                       # average number of cycles each access was blocked ((Cycle/Count))
system.cpu.dcache.writebacks::writebacks         5958                       # number of writebacks (Count)
system.cpu.dcache.writebacks::total              5958                       # number of writebacks (Count)
system.cpu.dcache.demandMshrHits::cpu.data        12430                       # number of demand (read+write) MSHR hits (Count)
system.cpu.dcache.demandMshrHits::total         12430                       # number of demand (read+write) MSHR hits (Count)
system.cpu.dcache.overallMshrHits::cpu.data        12430                       # number of overall MSHR hits (Count)
system.cpu.dcache.overallMshrHits::total        12430                       # number of overall MSHR hits (Count)
system.cpu.dcache.demandMshrMisses::cpu.data        12577                       # number of demand (read+write) MSHR misses (Count)
system.cpu.dcache.demandMshrMisses::total        12577                       # number of demand (read+write) MSHR misses (Count)
system.cpu.dcache.overallMshrMisses::cpu.data        12577                       # number of overall MSHR misses (Count)
system.cpu.dcache.overallMshrMisses::total        12577                       # number of overall MSHR misses (Count)
system.cpu.dcache.demandMshrMissLatency::cpu.data    746237993                       # number of demand (read+write) MSHR miss ticks (Tick)
system.cpu.dcache.demandMshrMissLatency::total    746237993                       # number of demand (read+write) MSHR miss ticks (Tick)
system.cpu.dcache.overallMshrMissLatency::cpu.data    746237993                       # number of overall MSHR miss ticks (Tick)
system.cpu.dcache.overallMshrMissLatency::total    746237993                       # number of overall MSHR miss ticks (Tick)
system.cpu.dcache.demandMshrMissRate::cpu.data     0.002727                       # mshr miss ratio for demand accesses (Ratio)
system.cpu.dcache.demandMshrMissRate::total     0.002727                       # mshr miss ratio for demand accesses (Ratio)
system.cpu.dcache.overallMshrMissRate::cpu.data     0.002727                       # mshr miss ratio for overall accesses (Ratio)
system.cpu.dcache.overallMshrMissRate::total     0.002727                       # mshr miss ratio for overall accesses (Ratio)
system.cpu.dcache.demandAvgMshrMissLatency::cpu.data 59333.544804                       # average overall mshr miss latency ((Cycle/Count))
system.cpu.dcache.demandAvgMshrMissLatency::total 59333.544804                       # average overall mshr miss latency ((Cycle/Count))
system.cpu.dcache.overallAvgMshrMissLatency::cpu.data 59333.544804                       # average overall mshr miss latency ((Cycle/Count))
system.cpu.dcache.overallAvgMshrMissLatency::total 59333.544804                       # average overall mshr miss latency ((Cycle/Count))
system.cpu.dcache.replacements                  11553                       # number of replacements (Count)
system.cpu.dcache.ReadReq.hits::cpu.data      3166683                       # number of ReadReq hits (Count)
system.cpu.dcache.ReadReq.hits::total         3166683                       # number of ReadReq hits (Count)
system.cpu.dcache.ReadReq.misses::cpu.data        20618                       # number of ReadReq misses (Count)
system.cpu.dcache.ReadReq.misses::total         20618                       # number of ReadReq misses (Count)
system.cpu.dcache.ReadReq.missLatency::cpu.data   1095440500                       # number of ReadReq miss ticks (Tick)
system.cpu.dcache.ReadReq.missLatency::total   1095440500                       # number of ReadReq miss ticks (Tick)
system.cpu.dcache.ReadReq.accesses::cpu.data      3187301                       # number of ReadReq accesses(hits+misses) (Count)
system.cpu.dcache.ReadReq.accesses::total      3187301                       # number of ReadReq accesses(hits+misses) (Count)
system.cpu.dcache.ReadReq.missRate::cpu.data     0.006469                       # miss rate for ReadReq accesses (Ratio)
system.cpu.dcache.ReadReq.missRate::total     0.006469                       # miss rate for ReadReq accesses (Ratio)
system.cpu.dcache.ReadReq.avgMissLatency::cpu.data 53130.298768                       # average ReadReq miss latency ((Tick/Count))
system.cpu.dcache.ReadReq.avgMissLatency::total 53130.298768                       # average ReadReq miss latency ((Tick/Count))
system.cpu.dcache.ReadReq.mshrHits::cpu.data        12429                       # number of ReadReq MSHR hits (Count)
system.cpu.dcache.ReadReq.mshrHits::total        12429                       # number of ReadReq MSHR hits (Count)
system.cpu.dcache.ReadReq.mshrMisses::cpu.data         8189                       # number of ReadReq MSHR misses (Count)
system.cpu.dcache.ReadReq.mshrMisses::total         8189                       # number of ReadReq MSHR misses (Count)
system.cpu.dcache.ReadReq.mshrMissLatency::cpu.data    492780000                       # number of ReadReq MSHR miss ticks (Tick)
system.cpu.dcache.ReadReq.mshrMissLatency::total    492780000                       # number of ReadReq MSHR miss ticks (Tick)
system.cpu.dcache.ReadReq.mshrMissRate::cpu.data     0.002569                       # mshr miss rate for ReadReq accesses (Ratio)
system.cpu.dcache.ReadReq.mshrMissRate::total     0.002569                       # mshr miss rate for ReadReq accesses (Ratio)
system.cpu.dcache.ReadReq.avgMshrMissLatency::cpu.data 60175.845647                       # average ReadReq mshr miss latency ((Tick/Count))
system.cpu.dcache.ReadReq.avgMshrMissLatency::total 60175.845647                       # average ReadReq mshr miss latency ((Tick/Count))
system.cpu.dcache.WriteReq.hits::cpu.data      1420752                       # number of WriteReq hits (Count)
system.cpu.dcache.WriteReq.hits::total        1420752                       # number of WriteReq hits (Count)
system.cpu.dcache.WriteReq.misses::cpu.data         4389                       # number of WriteReq misses (Count)
system.cpu.dcache.WriteReq.misses::total         4389                       # number of WriteReq misses (Count)
system.cpu.dcache.WriteReq.missLatency::cpu.data    257887993                       # number of WriteReq miss ticks (Tick)
system.cpu.dcache.WriteReq.missLatency::total    257887993                       # number of WriteReq miss ticks (Tick)
system.cpu.dcache.WriteReq.accesses::cpu.data      1425141                       # number of WriteReq accesses(hits+misses) (Count)
system.cpu.dcache.WriteReq.accesses::total      1425141                       # number of WriteReq accesses(hits+misses) (Count)
system.cpu.dcache.WriteReq.missRate::cpu.data     0.003080                       # miss rate for WriteReq accesses (Ratio)
system.cpu.dcache.WriteReq.missRate::total     0.003080                       # miss rate for WriteReq accesses (Ratio)
system.cpu.dcache.WriteReq.avgMissLatency::cpu.data 58757.802005                       # average WriteReq miss latency ((Tick/Count))
system.cpu.dcache.WriteReq.avgMissLatency::total 58757.802005                       # average WriteReq miss latency ((Tick/Count))
system.cpu.dcache.WriteReq.mshrHits::cpu.data            1                       # number of WriteReq MSHR hits (Count)
system.cpu.dcache.WriteReq.mshrHits::total            1                       # number of WriteReq MSHR hits (Count)
system.cpu.dcache.WriteReq.mshrMisses::cpu.data         4388                       # number of WriteReq MSHR misses (Count)
system.cpu.dcache.WriteReq.mshrMisses::total         4388                       # number of WriteReq MSHR misses (Count)
system.cpu.dcache.WriteReq.mshrMissLatency::cpu.data    253457993                       # number of WriteReq MSHR miss ticks (Tick)
system.cpu.dcache.WriteReq.mshrMissLatency::total    253457993                       # number of WriteReq MSHR miss ticks (Tick)
system.cpu.dcache.WriteReq.mshrMissRate::cpu.data     0.003079                       # mshr miss rate for WriteReq accesses (Ratio)
system.cpu.dcache.WriteReq.mshrMissRate::total     0.003079                       # mshr miss rate for WriteReq accesses (Ratio)
system.cpu.dcache.WriteReq.avgMshrMissLatency::cpu.data 57761.621012                       # average WriteReq mshr miss latency ((Tick/Count))
system.cpu.dcache.WriteReq.avgMshrMissLatency::total 57761.621012                       # average WriteReq mshr miss latency ((Tick/Count))
system.cpu.dcache.power_state.pwrStateResidencyTicks::UNDEFINED   5502006000                       # Cumulative time (in ticks) in various power states (Tick)
system.cpu.dcache.tags.tagsInUse          1015.606603                       # Average ticks per tags in use ((Tick/Count))
system.cpu.dcache.tags.totalRefs              4600012                       # Total number of references to valid blocks. (Count)
system.cpu.dcache.tags.sampledRefs              12577                       # Sample count of references to valid blocks. (Count)
system.cpu.dcache.tags.avgRefs             365.747953                       # Average number of references to valid blocks. ((Count/Count))
system.cpu.dcache.tags.warmupTick              145000                       # The tick when the warmup percentage was hit. (Tick)
system.cpu.dcache.tags.occupancies::cpu.data  1015.606603                       # Average occupied blocks per tick, per requestor ((Count/Tick))
system.cpu.dcache.tags.avgOccs::cpu.data     0.991803                       # Average percentage of cache occupancy ((Ratio/Tick))
system.cpu.dcache.tags.avgOccs::total        0.991803                       # Average percentage of cache occupancy ((Ratio/Tick))
system.cpu.dcache.tags.occupanciesTaskId::1024         1024                       # Occupied blocks per task id (Count)
system.cpu.dcache.tags.ageTaskId_1024::0           51                       # Occupied blocks per task id, per block age (Count)
system.cpu.dcache.tags.ageTaskId_1024::1          973                       # Occupied blocks per task id, per block age (Count)
system.cpu.dcache.tags.ratioOccsTaskId::1024            1                       # Ratio of occupied blocks and all blocks, per task id (Ratio)
system.cpu.dcache.tags.tagAccesses            9237461                       # Number of tag accesses (Count)
system.cpu.dcache.tags.dataAccesses           9237461                       # Number of data accesses (Count)
system.cpu.dcache.tags.power_state.pwrStateResidencyTicks::UNDEFINED   5502006000                       # Cumulative time (in ticks) in various power states (Tick)
system.cpu.decode.idleCycles                  2700425                       # Number of cycles decode is idle (Cycle)
system.cpu.decode.blockedCycles               2368829                       # Number of cycles decode is blocked (Cycle)
system.cpu.decode.runCycles                   5171076                       # Number of cycles decode is running (Cycle)
system.cpu.decode.unblockCycles                631911                       # Number of cycles decode is unblocking (Cycle)
system.cpu.decode.squashCycles                  77555                       # Number of cycles decode is squashing (Cycle)
system.cpu.decode.branchResolved              2806345                       # Number of times decode resolved a branch (Count)
system.cpu.decode.branchMispred                   432                       # Number of times decode detected a branch misprediction (Count)
system.cpu.decode.decodedInsts               36755154                       # Number of instructions handled by decode (Count)
system.cpu.decode.squashedInsts                  2117                       # Number of squashed instructions handled by decode (Count)
system.cpu.dtb_walker_cache.blockedCycles::no_mshrs            0                       # number of cycles access was blocked (Cycle)
system.cpu.dtb_walker_cache.blockedCycles::no_targets            0                       # number of cycles access was blocked (Cycle)
system.cpu.dtb_walker_cache.blockedCauses::no_mshrs            0                       # number of times access was blocked (Count)
system.cpu.dtb_walker_cache.blockedCauses::no_targets            0                       # number of times access was blocked (Count)
system.cpu.dtb_walker_cache.avgBlocked::no_mshrs          nan                       # average number of cycles each access was blocked ((Cycle/Count))
system.cpu.dtb_walker_cache.avgBlocked::no_targets          nan                       # average number of cycles each access was blocked ((Cycle/Count))
system.cpu.dtb_walker_cache.replacements            0                       # number of replacements (Count)
system.cpu.dtb_walker_cache.power_state.pwrStateResidencyTicks::UNDEFINED   5502006000                       # Cumulative time (in ticks) in various power states (Tick)
system.cpu.dtb_walker_cache.tags.tagsInUse            0                       # Average ticks per tags in use ((Tick/Count))
system.cpu.dtb_walker_cache.tags.totalRefs            0                       # Total number of references to valid blocks. (Count)
system.cpu.dtb_walker_cache.tags.sampledRefs            0                       # Sample count of references to valid blocks. (Count)
system.cpu.dtb_walker_cache.tags.avgRefs          nan                       # Average number of references to valid blocks. ((Count/Count))
system.cpu.dtb_walker_cache.tags.warmupTick            0                       # The tick when the warmup percentage was hit. (Tick)
system.cpu.dtb_walker_cache.tags.tagAccesses            0                       # Number of tag accesses (Count)
system.cpu.dtb_walker_cache.tags.dataAccesses            0                       # Number of data accesses (Count)
system.cpu.dtb_walker_cache.tags.power_state.pwrStateResidencyTicks::UNDEFINED   5502006000                       # Cumulative time (in ticks) in various power states (Tick)
system.cpu.fetch.icacheStallCycles            2840630                       # Number of cycles fetch is stalled on an Icache miss (Cycle)
system.cpu.fetch.insts                       17936044                       # Number of instructions fetch has processed (Count)
system.cpu.fetch.branches                     4429042                       # Number of branches that fetch encountered (Count)
system.cpu.fetch.predictedBranches            3233137                       # Number of branches that fetch has predicted taken (Count)
system.cpu.fetch.cycles                       8030261                       # Number of cycles fetch has run and was not squashing or blocked (Cycle)
system.cpu.fetch.squashCycles                  155936                       # Number of cycles fetch has spent squashing (Cycle)
system.cpu.fetch.miscStallCycles                  124                       # Number of cycles fetch has spent waiting on interrupts, or bad addresses, or out of MSHRs (Cycle)
system.cpu.fetch.pendingTrapStallCycles           730                       # Number of stall cycles due to pending traps (Cycle)
system.cpu.fetch.pendingQuiesceStallCycles            1                       # Number of stall cycles due to pending quiesce instructions (Cycle)
system.cpu.fetch.icacheWaitRetryStallCycles           82                       # Number of stall cycles due to full MSHR (Cycle)
system.cpu.fetch.cacheLines                   2774851                       # Number of cache lines fetched (Count)
system.cpu.fetch.icacheSquashes                 14628                       # Number of outstanding Icache misses that were squashed (Count)
system.cpu.fetch.nisnDist::samples           10949796                       # Number of instructions fetched each cycle (Total) (Count)
system.cpu.fetch.nisnDist::mean              3.464984                       # Number of instructions fetched each cycle (Total) (Count)
system.cpu.fetch.nisnDist::stdev             3.441403                       # Number of instructions fetched each cycle (Total) (Count)
system.cpu.fetch.nisnDist::underflows               0      0.00%      0.00% # Number of instructions fetched each cycle (Total) (Count)
system.cpu.fetch.nisnDist::0                  4734209     43.24%     43.24% # Number of instructions fetched each cycle (Total) (Count)
system.cpu.fetch.nisnDist::1                   184455      1.68%     44.92% # Number of instructions fetched each cycle (Total) (Count)
system.cpu.fetch.nisnDist::2                   203272      1.86%     46.78% # Number of instructions fetched each cycle (Total) (Count)
system.cpu.fetch.nisnDist::3                   211291      1.93%     48.71% # Number of instructions fetched each cycle (Total) (Count)
system.cpu.fetch.nisnDist::4                  1593594     14.55%     63.26% # Number of instructions fetched each cycle (Total) (Count)
system.cpu.fetch.nisnDist::5                   403277      3.68%     66.94% # Number of instructions fetched each cycle (Total) (Count)
system.cpu.fetch.nisnDist::6                   245869      2.25%     69.19% # Number of instructions fetched each cycle (Total) (Count)
system.cpu.fetch.nisnDist::7                   140615      1.28%     70.47% # Number of instructions fetched each cycle (Total) (Count)
system.cpu.fetch.nisnDist::8                  3233214     29.53%    100.00% # Number of instructions fetched each cycle (Total) (Count)
system.cpu.fetch.nisnDist::overflows                0      0.00%    100.00% # Number of instructions fetched each cycle (Total) (Count)
system.cpu.fetch.nisnDist::min_value                0                       # Number of instructions fetched each cycle (Total) (Count)
system.cpu.fetch.nisnDist::max_value                8                       # Number of instructions fetched each cycle (Total) (Count)
system.cpu.fetch.nisnDist::total             10949796                       # Number of instructions fetched each cycle (Total) (Count)
system.cpu.fetch.branchRate                  0.402493                       # Number of branch fetches per cycle (Ratio)
system.cpu.fetch.rate                        1.629955                       # Number of inst fetches per cycle ((Count/Cycle))
system.cpu.icache.demandHits::cpu.inst        2772997                       # number of demand (read+write) hits (Count)
system.cpu.icache.demandHits::total           2772997                       # number of demand (read+write) hits (Count)
system.cpu.icache.overallHits::cpu.inst       2772997                       # number of overall hits (Count)
system.cpu.icache.overallHits::total          2772997                       # number of overall hits (Count)
system.cpu.icache.demandMisses::cpu.inst         1854                       # number of demand (read+write) misses (Count)
system.cpu.icache.demandMisses::total            1854                       # number of demand (read+write) misses (Count)
system.cpu.icache.overallMisses::cpu.inst         1854                       # number of overall misses (Count)
system.cpu.icache.overallMisses::total           1854                       # number of overall misses (Count)
system.cpu.icache.demandMissLatency::cpu.inst     83497500                       # number of demand (read+write) miss ticks (Tick)
system.cpu.icache.demandMissLatency::total     83497500                       # number of demand (read+write) miss ticks (Tick)
system.cpu.icache.overallMissLatency::cpu.inst     83497500                       # number of overall miss ticks (Tick)
system.cpu.icache.overallMissLatency::total     83497500                       # number of overall miss ticks (Tick)
system.cpu.icache.demandAccesses::cpu.inst      2774851                       # number of demand (read+write) accesses (Count)
system.cpu.icache.demandAccesses::total       2774851                       # number of demand (read+write) accesses (Count)
system.cpu.icache.overallAccesses::cpu.inst      2774851                       # number of overall (read+write) accesses (Count)
system.cpu.icache.overallAccesses::total      2774851                       # number of overall (read+write) accesses (Count)
system.cpu.icache.demandMissRate::cpu.inst     0.000668                       # miss rate for demand accesses (Ratio)
system.cpu.icache.demandMissRate::total      0.000668                       # miss rate for demand accesses (Ratio)
system.cpu.icache.overallMissRate::cpu.inst     0.000668                       # miss rate for overall accesses (Ratio)
system.cpu.icache.overallMissRate::total     0.000668                       # miss rate for overall accesses (Ratio)
system.cpu.icache.demandAvgMissLatency::cpu.inst 45036.407767                       # average overall miss latency ((Cycle/Count))
system.cpu.icache.demandAvgMissLatency::total 45036.407767                       # average overall miss latency ((Cycle/Count))
system.cpu.icache.overallAvgMissLatency::cpu.inst 45036.407767                       # average overall miss latency ((Cycle/Count))
system.cpu.icache.overallAvgMissLatency::total 45036.407767                       # average overall miss latency ((Cycle/Count))
system.cpu.icache.blockedCycles::no_mshrs          270                       # number of cycles access was blocked (Cycle)
system.cpu.icache.blockedCycles::no_targets            0                       # number of cycles access was blocked (Cycle)
system.cpu.icache.blockedCauses::no_mshrs            4                       # number of times access was blocked (Count)
system.cpu.icache.blockedCauses::no_targets            0                       # number of times access was blocked (Count)
system.cpu.icache.avgBlocked::no_mshrs      67.500000                       # average number of cycles each access was blocked ((Cycle/Count))
system.cpu.icache.avgBlocked::no_targets          nan                       # average number of cycles each access was blocked ((Cycle/Count))
system.cpu.icache.writebacks::writebacks          858                       # number of writebacks (Count)
system.cpu.icache.writebacks::total               858                       # number of writebacks (Count)
system.cpu.icache.demandMshrHits::cpu.inst          509                       # number of demand (read+write) MSHR hits (Count)
system.cpu.icache.demandMshrHits::total           509                       # number of demand (read+write) MSHR hits (Count)
system.cpu.icache.overallMshrHits::cpu.inst          509                       # number of overall MSHR hits (Count)
system.cpu.icache.overallMshrHits::total          509                       # number of overall MSHR hits (Count)
system.cpu.icache.demandMshrMisses::cpu.inst         1345                       # number of demand (read+write) MSHR misses (Count)
system.cpu.icache.demandMshrMisses::total         1345                       # number of demand (read+write) MSHR misses (Count)
system.cpu.icache.overallMshrMisses::cpu.inst         1345                       # number of overall MSHR misses (Count)
system.cpu.icache.overallMshrMisses::total         1345                       # number of overall MSHR misses (Count)
system.cpu.icache.demandMshrMissLatency::cpu.inst     68322000                       # number of demand (read+write) MSHR miss ticks (Tick)
system.cpu.icache.demandMshrMissLatency::total     68322000                       # number of demand (read+write) MSHR miss ticks (Tick)
system.cpu.icache.overallMshrMissLatency::cpu.inst     68322000                       # number of overall MSHR miss ticks (Tick)
system.cpu.icache.overallMshrMissLatency::total     68322000                       # number of overall MSHR miss ticks (Tick)
system.cpu.icache.demandMshrMissRate::cpu.inst     0.000485                       # mshr miss ratio for demand accesses (Ratio)
system.cpu.icache.demandMshrMissRate::total     0.000485                       # mshr miss ratio for demand accesses (Ratio)
system.cpu.icache.overallMshrMissRate::cpu.inst     0.000485                       # mshr miss ratio for overall accesses (Ratio)
system.cpu.icache.overallMshrMissRate::total     0.000485                       # mshr miss ratio for overall accesses (Ratio)
system.cpu.icache.demandAvgMshrMissLatency::cpu.inst 50797.026022                       # average overall mshr miss latency ((Cycle/Count))
system.cpu.icache.demandAvgMshrMissLatency::total 50797.026022                       # average overall mshr miss latency ((Cycle/Count))
system.cpu.icache.overallAvgMshrMissLatency::cpu.inst 50797.026022                       # average overall mshr miss latency ((Cycle/Count))
system.cpu.icache.overallAvgMshrMissLatency::total 50797.026022                       # average overall mshr miss latency ((Cycle/Count))
system.cpu.icache.replacements                    858                       # number of replacements (Count)
system.cpu.icache.ReadReq.hits::cpu.inst      2772997                       # number of ReadReq hits (Count)
system.cpu.icache.ReadReq.hits::total         2772997                       # number of ReadReq hits (Count)
system.cpu.icache.ReadReq.misses::cpu.inst         1854                       # number of ReadReq misses (Count)
system.cpu.icache.ReadReq.misses::total          1854                       # number of ReadReq misses (Count)
system.cpu.icache.ReadReq.missLatency::cpu.inst     83497500                       # number of ReadReq miss ticks (Tick)
system.cpu.icache.ReadReq.missLatency::total     83497500                       # number of ReadReq miss ticks (Tick)
system.cpu.icache.ReadReq.accesses::cpu.inst      2774851                       # number of ReadReq accesses(hits+misses) (Count)
system.cpu.icache.ReadReq.accesses::total      2774851                       # number of ReadReq accesses(hits+misses) (Count)
system.cpu.icache.ReadReq.missRate::cpu.inst     0.000668                       # miss rate for ReadReq accesses (Ratio)
system.cpu.icache.ReadReq.missRate::total     0.000668                       # miss rate for ReadReq accesses (Ratio)
system.cpu.icache.ReadReq.avgMissLatency::cpu.inst 45036.407767                       # average ReadReq miss latency ((Tick/Count))
system.cpu.icache.ReadReq.avgMissLatency::total 45036.407767                       # average ReadReq miss latency ((Tick/Count))
system.cpu.icache.ReadReq.mshrHits::cpu.inst          509                       # number of ReadReq MSHR hits (Count)
system.cpu.icache.ReadReq.mshrHits::total          509                       # number of ReadReq MSHR hits (Count)
system.cpu.icache.ReadReq.mshrMisses::cpu.inst         1345                       # number of ReadReq MSHR misses (Count)
system.cpu.icache.ReadReq.mshrMisses::total         1345                       # number of ReadReq MSHR misses (Count)
system.cpu.icache.ReadReq.mshrMissLatency::cpu.inst     68322000                       # number of ReadReq MSHR miss ticks (Tick)
system.cpu.icache.ReadReq.mshrMissLatency::total     68322000                       # number of ReadReq MSHR miss ticks (Tick)
system.cpu.icache.ReadReq.mshrMissRate::cpu.inst     0.000485                       # mshr miss rate for ReadReq accesses (Ratio)
system.cpu.icache.ReadReq.mshrMissRate::total     0.000485                       # mshr miss rate for ReadReq accesses (Ratio)
system.cpu.icache.ReadReq.avgMshrMissLatency::cpu.inst 50797.026022                       # average ReadReq mshr miss latency ((Tick/Count))
system.cpu.icache.ReadReq.avgMshrMissLatency::total 50797.026022                       # average ReadReq mshr miss latency ((Tick/Count))
system.cpu.icache.power_state.pwrStateResidencyTicks::UNDEFINED   5502006000                       # Cumulative time (in ticks) in various power states (Tick)
system.cpu.icache.tags.tagsInUse           418.638005                       # Average ticks per tags in use ((Tick/Count))
system.cpu.icache.tags.totalRefs              2774341                       # Total number of references to valid blocks. (Count)
system.cpu.icache.tags.sampledRefs               1344                       # Sample count of references to valid blocks. (Count)
system.cpu.icache.tags.avgRefs            2064.241815                       # Average number of references to valid blocks. ((Count/Count))
system.cpu.icache.tags.warmupTick               77000                       # The tick when the warmup percentage was hit. (Tick)
system.cpu.icache.tags.occupancies::cpu.inst   418.638005                       # Average occupied blocks per tick, per requestor ((Count/Tick))
system.cpu.icache.tags.avgOccs::cpu.inst     0.817652                       # Average percentage of cache occupancy ((Ratio/Tick))
system.cpu.icache.tags.avgOccs::total        0.817652                       # Average percentage of cache occupancy ((Ratio/Tick))
system.cpu.icache.tags.occupanciesTaskId::1024          486                       # Occupied blocks per task id (Count)
system.cpu.icache.tags.ageTaskId_1024::0          142                       # Occupied blocks per task id, per block age (Count)
system.cpu.icache.tags.ageTaskId_1024::1           34                       # Occupied blocks per task id, per block age (Count)
system.cpu.icache.tags.ageTaskId_1024::2           85                       # Occupied blocks per task id, per block age (Count)
system.cpu.icache.tags.ageTaskId_1024::3          225                       # Occupied blocks per task id, per block age (Count)
system.cpu.icache.tags.ratioOccsTaskId::1024     0.949219                       # Ratio of occupied blocks and all blocks, per task id (Ratio)
system.cpu.icache.tags.tagAccesses            5551046                       # Number of tag accesses (Count)
system.cpu.icache.tags.dataAccesses           5551046                       # Number of data accesses (Count)
system.cpu.icache.tags.power_state.pwrStateResidencyTicks::UNDEFINED   5502006000                       # Cumulative time (in ticks) in various power states (Tick)
system.cpu.iew.idleCycles                           0                       # Number of cycles IEW is idle (Cycle)
system.cpu.iew.squashCycles                     77555                       # Number of cycles IEW is squashing (Cycle)
system.cpu.iew.blockCycles                     594221                       # Number of cycles IEW is blocking (Cycle)
system.cpu.iew.unblockCycles                   122905                       # Number of cycles IEW is unblocking (Cycle)
system.cpu.iew.dispatchedInsts               35780511                       # Number of instructions dispatched to IQ (Count)
system.cpu.iew.dispSquashedInsts                25298                       # Number of squashed instructions skipped by dispatch (Count)
system.cpu.iew.dispLoadInsts                  3410934                       # Number of dispatched load instructions (Count)
system.cpu.iew.dispStoreInsts                 1530743                       # Number of dispatched store instructions (Count)
system.cpu.iew.dispNonSpecInsts                    14                       # Number of dispatched non-speculative instructions (Count)
system.cpu.iew.iqFullEvents                      9410                       # Number of times the IQ has become full, causing a stall (Count)
system.cpu.iew.lsqFullEvents                   109847                       # Number of times the LSQ has become full, causing a stall (Count)
system.cpu.iew.memOrderViolationEvents             41                       # Number of memory order violations (Count)
system.cpu.iew.predictedTakenIncorrect          48617                       # Number of branches that were predicted taken incorrectly (Count)
system.cpu.iew.predictedNotTakenIncorrect        49792                       # Number of branches that were predicted not taken incorrectly (Count)
system.cpu.iew.branchMispredicts                98409                       # Number of branch mispredicts detected at execute (Count)
system.cpu.iew.instsToCommit                 34676583                       # Cumulative count of insts sent to commit (Count)
system.cpu.iew.writebackCount                34646909                       # Cumulative count of insts written-back (Count)
system.cpu.iew.producerInst                  25246177                       # Number of instructions producing a value (Count)
system.cpu.iew.consumerInst                  44043074                       # Number of instructions consuming a value (Count)
system.cpu.iew.wbRate                        3.148570                       # Insts written-back per cycle ((Count/Cycle))
system.cpu.iew.wbFanout                      0.573216                       # Average fanout of values written-back ((Count/Count))
system.cpu.interrupts.clk_domain.clock           8000                       # Clock period in ticks (Tick)
system.cpu.itb_walker_cache.blockedCycles::no_mshrs            0                       # number of cycles access was blocked (Cycle)
system.cpu.itb_walker_cache.blockedCycles::no_targets            0                       # number of cycles access was blocked (Cycle)
system.cpu.itb_walker_cache.blockedCauses::no_mshrs            0                       # number of times access was blocked (Count)
system.cpu.itb_walker_cache.blockedCauses::no_targets            0                       # number of times access was blocked (Count)
system.cpu.itb_walker_cache.avgBlocked::no_mshrs          nan                       # average number of cycles each access was blocked ((Cycle/Count))
system.cpu.itb_walker_cache.avgBlocked::no_targets          nan                       # average number of cycles each access was blocked ((Cycle/Count))
system.cpu.itb_walker_cache.replacements            0                       # number of replacements (Count)
system.cpu.itb_walker_cache.power_state.pwrStateResidencyTicks::UNDEFINED   5502006000                       # Cumulative time (in ticks) in various power states (Tick)
system.cpu.itb_walker_cache.tags.tagsInUse            0                       # Average ticks per tags in use ((Tick/Count))
system.cpu.itb_walker_cache.tags.totalRefs            0                       # Total number of references to valid blocks. (Count)
system.cpu.itb_walker_cache.tags.sampledRefs            0                       # Sample count of references to valid blocks. (Count)
system.cpu.itb_walker_cache.tags.avgRefs          nan                       # Average number of references to valid blocks. ((Count/Count))
system.cpu.itb_walker_cache.tags.warmupTick            0                       # The tick when the warmup percentage was hit. (Tick)
system.cpu.itb_walker_cache.tags.tagAccesses            0                       # Number of tag accesses (Count)
system.cpu.itb_walker_cache.tags.dataAccesses            0                       # Number of data accesses (Count)
system.cpu.itb_walker_cache.tags.power_state.pwrStateResidencyTicks::UNDEFINED   5502006000                       # Cumulative time (in ticks) in various power states (Tick)
system.cpu.lsq0.forwLoads                      188252                       # Number of loads that had data forwarded from stores (Count)
system.cpu.lsq0.squashedLoads                  109570                       # Number of loads squashed (Count)
system.cpu.lsq0.ignoredResponses                  331                       # Number of memory responses ignored because the instruction is squashed (Count)
system.cpu.lsq0.memOrderViolation                  41                       # Number of memory ordering violations (Count)
system.cpu.lsq0.squashedStores                 105603                       # Number of stores squashed (Count)
system.cpu.lsq0.rescheduledLoads                    0                       # Number of loads that were rescheduled (Count)
system.cpu.lsq0.blockedByCache                    626                       # Number of times an access to memory failed due to the cache being blocked (Count)
system.cpu.lsq0.loadToUse::samples            3301364                       # Distribution of cycle latency between the first time a load is issued and its completion (Unspecified)
system.cpu.lsq0.loadToUse::mean              4.016376                       # Distribution of cycle latency between the first time a load is issued and its completion (Unspecified)
system.cpu.lsq0.loadToUse::stdev            11.671710                       # Distribution of cycle latency between the first time a load is issued and its completion (Unspecified)
system.cpu.lsq0.loadToUse::0-9                3279819     99.35%     99.35% # Distribution of cycle latency between the first time a load is issued and its completion (Unspecified)
system.cpu.lsq0.loadToUse::10-19                  924      0.03%     99.38% # Distribution of cycle latency between the first time a load is issued and its completion (Unspecified)
system.cpu.lsq0.loadToUse::20-29                 1028      0.03%     99.41% # Distribution of cycle latency between the first time a load is issued and its completion (Unspecified)
system.cpu.lsq0.loadToUse::30-39                  398      0.01%     99.42% # Distribution of cycle latency between the first time a load is issued and its completion (Unspecified)
system.cpu.lsq0.loadToUse::40-49                  546      0.02%     99.44% # Distribution of cycle latency between the first time a load is issued and its completion (Unspecified)
system.cpu.lsq0.loadToUse::50-59                  227      0.01%     99.44% # Distribution of cycle latency between the first time a load is issued and its completion (Unspecified)
system.cpu.lsq0.loadToUse::60-69                  182      0.01%     99.45% # Distribution of cycle latency between the first time a load is issued and its completion (Unspecified)
system.cpu.lsq0.loadToUse::70-79                  436      0.01%     99.46% # Distribution of cycle latency between the first time a load is issued and its completion (Unspecified)
[...]
system.mem_ctrls.dram.bwWrite::total         69304177                       # Write bandwidth from this memory ((Byte/Second))
system.mem_ctrls.dram.bwTotal::writebacks     69304177                       # Total bandwidth to/from this memory ((Byte/Second))
system.mem_ctrls.dram.bwTotal::cpu.inst      15633571                       # Total bandwidth to/from this memory ((Byte/Second))
system.mem_ctrls.dram.bwTotal::cpu.data     146297187                       # Total bandwidth to/from this memory ((Byte/Second))
system.mem_ctrls.dram.bwTotal::total        231234935                       # Total bandwidth to/from this memory ((Byte/Second))
system.mem_ctrls.dram.readBursts                13291                       # Number of DRAM read bursts (Count)
system.mem_ctrls.dram.writeBursts                6368                       # Number of DRAM write bursts (Count)
system.mem_ctrls.dram.perBankRdBursts::0         1148                       # Per bank write bursts (Count)
system.mem_ctrls.dram.perBankRdBursts::1          930                       # Per bank write bursts (Count)
system.mem_ctrls.dram.perBankRdBursts::2         1027                       # Per bank write bursts (Count)
system.mem_ctrls.dram.perBankRdBursts::3         1005                       # Per bank write bursts (Count)
system.mem_ctrls.dram.perBankRdBursts::4         1066                       # Per bank write bursts (Count)
system.mem_ctrls.dram.perBankRdBursts::5          552                       # Per bank write bursts (Count)
system.mem_ctrls.dram.perBankRdBursts::6          557                       # Per bank write bursts (Count)
system.mem_ctrls.dram.perBankRdBursts::7          536                       # Per bank write bursts (Count)
system.mem_ctrls.dram.perBankRdBursts::8          724                       # Per bank write bursts (Count)
system.mem_ctrls.dram.perBankRdBursts::9          593                       # Per bank write bursts (Count)
system.mem_ctrls.dram.perBankRdBursts::10          680                       # Per bank write bursts (Count)
system.mem_ctrls.dram.perBankRdBursts::11          497                       # Per bank write bursts (Count)
system.mem_ctrls.dram.perBankRdBursts::12          969                       # Per bank write bursts (Count)
system.mem_ctrls.dram.perBankRdBursts::13         1047                       # Per bank write bursts (Count)
system.mem_ctrls.dram.perBankRdBursts::14          991                       # Per bank write bursts (Count)
system.mem_ctrls.dram.perBankRdBursts::15          969                       # Per bank write bursts (Count)
system.mem_ctrls.dram.perBankWrBursts::0          469                       # Per bank write bursts (Count)
system.mem_ctrls.dram.perBankWrBursts::1          436                       # Per bank write bursts (Count)
system.mem_ctrls.dram.perBankWrBursts::2          444                       # Per bank write bursts (Count)
system.mem_ctrls.dram.perBankWrBursts::3          434                       # Per bank write bursts (Count)
system.mem_ctrls.dram.perBankWrBursts::4          442                       # Per bank write bursts (Count)
system.mem_ctrls.dram.perBankWrBursts::5          282                       # Per bank write bursts (Count)
system.mem_ctrls.dram.perBankWrBursts::6          272                       # Per bank write bursts (Count)
system.mem_ctrls.dram.perBankWrBursts::7          267                       # Per bank write bursts (Count)
system.mem_ctrls.dram.perBankWrBursts::8          294                       # Per bank write bursts (Count)
system.mem_ctrls.dram.perBankWrBursts::9          302                       # Per bank write bursts (Count)
system.mem_ctrls.dram.perBankWrBursts::10          398                       # Per bank write bursts (Count)
system.mem_ctrls.dram.perBankWrBursts::11          307                       # Per bank write bursts (Count)
system.mem_ctrls.dram.perBankWrBursts::12          410                       # Per bank write bursts (Count)
system.mem_ctrls.dram.perBankWrBursts::13          514                       # Per bank write bursts (Count)
system.mem_ctrls.dram.perBankWrBursts::14          523                       # Per bank write bursts (Count)
system.mem_ctrls.dram.perBankWrBursts::15          574                       # Per bank write bursts (Count)
system.mem_ctrls.dram.totQLat               130336000                       # Total ticks spent queuing (Tick)
system.mem_ctrls.dram.totBusLat              66455000                       # Total ticks spent in databus transfers (Tick)
system.mem_ctrls.dram.totMemAccLat          379542250                       # Total ticks spent from burst creation until serviced by the DRAM (Tick)
system.mem_ctrls.dram.avgQLat                 9806.34                       # Average queueing delay per DRAM burst ((Tick/Count))
system.mem_ctrls.dram.avgBusLat               5000.00                       # Average bus latency per DRAM burst ((Tick/Count))
system.mem_ctrls.dram.avgMemAccLat           28556.34                       # Average memory access latency per DRAM burst ((Tick/Count))
system.mem_ctrls.dram.readRowHits               10444                       # Number of row buffer hits during reads (Count)
system.mem_ctrls.dram.writeRowHits               5528                       # Number of row buffer hits during writes (Count)
system.mem_ctrls.dram.readRowHitRate            78.58                       # Row buffer hit rate for reads (Ratio)
system.mem_ctrls.dram.writeRowHitRate           86.81                       # Row buffer hit rate for writes (Ratio)
system.mem_ctrls.dram.bytesPerActivate::samples         3674                       # Bytes accessed per row activation (Byte)
system.mem_ctrls.dram.bytesPerActivate::mean   341.617855                       # Bytes accessed per row activation (Byte)
system.mem_ctrls.dram.bytesPerActivate::gmean   225.184496                       # Bytes accessed per row activation (Byte)
system.mem_ctrls.dram.bytesPerActivate::stdev   314.468395                       # Bytes accessed per row activation (Byte)
system.mem_ctrls.dram.bytesPerActivate::0-127          796     21.67%     21.67% # Bytes accessed per row activation (Byte)
system.mem_ctrls.dram.bytesPerActivate::128-255         1116     30.38%     52.04% # Bytes accessed per row activation (Byte)
system.mem_ctrls.dram.bytesPerActivate::256-383          462     12.57%     64.62% # Bytes accessed per row activation (Byte)
system.mem_ctrls.dram.bytesPerActivate::384-511          482     13.12%     77.74% # Bytes accessed per row activation (Byte)
system.mem_ctrls.dram.bytesPerActivate::512-639          140      3.81%     81.55% # Bytes accessed per row activation (Byte)
system.mem_ctrls.dram.bytesPerActivate::640-767          102      2.78%     84.32% # Bytes accessed per row activation (Byte)
system.mem_ctrls.dram.bytesPerActivate::768-895           82      2.23%     86.55% # Bytes accessed per row activation (Byte)
system.mem_ctrls.dram.bytesPerActivate::896-1023           57      1.55%     88.11% # Bytes accessed per row activation (Byte)
system.mem_ctrls.dram.bytesPerActivate::1024-1151          437     11.89%    100.00% # Bytes accessed per row activation (Byte)
system.mem_ctrls.dram.bytesPerActivate::total         3674                       # Bytes accessed per row activation (Byte)
system.mem_ctrls.dram.bytesRead                850624                       # Total bytes read (Byte)
system.mem_ctrls.dram.bytesWritten             407552                       # Total bytes written (Byte)
system.mem_ctrls.dram.avgRdBW              154.602521                       # Average DRAM read bandwidth in MiBytes/s ((Byte/Second))
system.mem_ctrls.dram.avgWrBW               74.073347                       # Average DRAM write bandwidth in MiBytes/s ((Byte/Second))
system.mem_ctrls.dram.peakBW                 12800.00                       # Theoretical peak bandwidth in MiByte/s ((Byte/Second))
system.mem_ctrls.dram.busUtil                    1.79                       # Data bus utilization in percentage (Ratio)
system.mem_ctrls.dram.busUtilRead                1.21                       # Data bus utilization in percentage for reads (Ratio)
system.mem_ctrls.dram.busUtilWrite               0.58                       # Data bus utilization in percentage for writes (Ratio)
system.mem_ctrls.dram.pageHitRate               81.25                       # Row buffer hit rate, read and write combined (Ratio)
system.mem_ctrls.dram.power_state.pwrStateResidencyTicks::UNDEFINED   5502006000                       # Cumulative time (in ticks) in various power states (Tick)
system.mem_ctrls.dram.rank0.actEnergy        13751640                       # Energy for activate commands per rank (pJ) (Joule)
system.mem_ctrls.dram.rank0.preEnergy         7290195                       # Energy for precharge commands per rank (pJ) (Joule)
system.mem_ctrls.dram.rank0.readEnergy       48701940                       # Energy for read commands per rank (pJ) (Joule)
system.mem_ctrls.dram.rank0.writeEnergy      15900120                       # Energy for write commands per rank (pJ) (Joule)
system.mem_ctrls.dram.rank0.refreshEnergy 433935840.000000                       # Energy for refresh commands per rank (pJ) (Joule)
system.mem_ctrls.dram.rank0.actBackEnergy   1914026370                       # Energy for active background per rank (pJ) (Joule)
system.mem_ctrls.dram.rank0.preBackEnergy    500958720                       # Energy for precharge background per rank (pJ) (Joule)
system.mem_ctrls.dram.rank0.actPowerDownEnergy            0                       # Energy for active power-down per rank (pJ) (Joule)
system.mem_ctrls.dram.rank0.prePowerDownEnergy            0                       # Energy for precharge power-down per rank (pJ) (Joule)
system.mem_ctrls.dram.rank0.selfRefreshEnergy            0                       # Energy for self refresh per rank (pJ) (Joule)
system.mem_ctrls.dram.rank0.totalEnergy    2934564825                       # Total energy per rank (pJ) (Joule)
system.mem_ctrls.dram.rank0.averagePower   533.362709                       # Core power per rank (mW) (Watt)
system.mem_ctrls.dram.rank0.totalIdleTime            0                       # Total Idle time Per DRAM Rank (Tick)
system.mem_ctrls.dram.rank0.pwrStateTime::IDLE   1283070500                       # Time in different power states (Tick)
system.mem_ctrls.dram.rank0.pwrStateTime::REF    183560000                       # Time in different power states (Tick)
system.mem_ctrls.dram.rank0.pwrStateTime::SREF            0                       # Time in different power states (Tick)
system.mem_ctrls.dram.rank0.pwrStateTime::PRE_PDN            0                       # Time in different power states (Tick)
system.mem_ctrls.dram.rank0.pwrStateTime::ACT   4035375500                       # Time in different power states (Tick)
system.mem_ctrls.dram.rank0.pwrStateTime::ACT_PDN            0                       # Time in different power states (Tick)
system.mem_ctrls.dram.rank1.actEnergy        12573540                       # Energy for activate commands per rank (pJ) (Joule)
system.mem_ctrls.dram.rank1.preEnergy         6652635                       # Energy for precharge commands per rank (pJ) (Joule)
system.mem_ctrls.dram.rank1.readEnergy       46188660                       # Energy for read commands per rank (pJ) (Joule)
system.mem_ctrls.dram.rank1.writeEnergy      17340840                       # Energy for write commands per rank (pJ) (Joule)
system.mem_ctrls.dram.rank1.refreshEnergy 433935840.000000                       # Energy for refresh commands per rank (pJ) (Joule)
system.mem_ctrls.dram.rank1.actBackEnergy   1770581310                       # Energy for active background per rank (pJ) (Joule)
system.mem_ctrls.dram.rank1.preBackEnergy    621754560                       # Energy for precharge background per rank (pJ) (Joule)
system.mem_ctrls.dram.rank1.actPowerDownEnergy            0                       # Energy for active power-down per rank (pJ) (Joule)
system.mem_ctrls.dram.rank1.prePowerDownEnergy            0                       # Energy for precharge power-down per rank (pJ) (Joule)
system.mem_ctrls.dram.rank1.selfRefreshEnergy            0                       # Energy for self refresh per rank (pJ) (Joule)
system.mem_ctrls.dram.rank1.totalEnergy    2909027385                       # Total energy per rank (pJ) (Joule)
system.mem_ctrls.dram.rank1.averagePower   528.721231                       # Core power per rank (mW) (Watt)
system.mem_ctrls.dram.rank1.totalIdleTime            0                       # Total Idle time Per DRAM Rank (Tick)
system.mem_ctrls.dram.rank1.pwrStateTime::IDLE   1600009750                       # Time in different power states (Tick)
system.mem_ctrls.dram.rank1.pwrStateTime::REF    183560000                       # Time in different power states (Tick)
system.mem_ctrls.dram.rank1.pwrStateTime::SREF            0                       # Time in different power states (Tick)
system.mem_ctrls.dram.rank1.pwrStateTime::PRE_PDN            0                       # Time in different power states (Tick)
system.mem_ctrls.dram.rank1.pwrStateTime::ACT   3718436250                       # Time in different power states (Tick)
system.mem_ctrls.dram.rank1.pwrStateTime::ACT_PDN            0                       # Time in different power states (Tick)
system.mem_ctrls.power_state.pwrStateResidencyTicks::UNDEFINED   5502006000                       # Cumulative time (in ticks) in various power states (Tick)
system.membus.transDist::ReadResp                9533                       # Transaction distribution (Count)
system.membus.transDist::WritebackDirty          5958                       # Transaction distribution (Count)
system.membus.transDist::WritebackClean           858                       # Transaction distribution (Count)
system.membus.transDist::CleanEvict              5595                       # Transaction distribution (Count)
system.membus.transDist::ReadExReq               4388                       # Transaction distribution (Count)
system.membus.transDist::ReadExResp              4388                       # Transaction distribution (Count)
system.membus.transDist::ReadCleanReq            1345                       # Transaction distribution (Count)
system.membus.transDist::ReadSharedReq           8189                       # Transaction distribution (Count)
system.membus.pktCount_system.cpu.icache.mem_side_port::system.mem_ctrls.port         3547                       # Packet count per connected requestor and responder (Count)
system.membus.pktCount_system.cpu.icache.mem_side_port::total         3547                       # Packet count per connected requestor and responder (Count)
system.membus.pktCount_system.cpu.dcache.mem_side_port::system.mem_ctrls.port        36707                       # Packet count per connected requestor and responder (Count)
system.membus.pktCount_system.cpu.dcache.mem_side_port::total        36707                       # Packet count per connected requestor and responder (Count)
system.membus.pktCount::total                   40254                       # Packet count per connected requestor and responder (Count)
system.membus.pktSize_system.cpu.icache.mem_side_port::system.mem_ctrls.port       140928                       # Cumulative packet size per connected requestor and responder (Byte)
system.membus.pktSize_system.cpu.icache.mem_side_port::total       140928                       # Cumulative packet size per connected requestor and responder (Byte)
system.membus.pktSize_system.cpu.dcache.mem_side_port::system.mem_ctrls.port      1186240                       # Cumulative packet size per connected requestor and responder (Byte)
system.membus.pktSize_system.cpu.dcache.mem_side_port::total      1186240                       # Cumulative packet size per connected requestor and responder (Byte)
system.membus.pktSize::total                  1327168                       # Cumulative packet size per connected requestor and responder (Byte)
system.membus.snoops                                0                       # Total snoops (Count)
system.membus.snoopTraffic                          0                       # Total snoop traffic (Byte)
system.membus.snoopFanout::samples              13922                       # Request fanout histogram (Count)
system.membus.snoopFanout::mean              0.000072                       # Request fanout histogram (Count)
system.membus.snoopFanout::stdev             0.008475                       # Request fanout histogram (Count)
system.membus.snoopFanout::underflows               0      0.00%      0.00% # Request fanout histogram (Count)
system.membus.snoopFanout::0                    13921     99.99%     99.99% # Request fanout histogram (Count)
system.membus.snoopFanout::1                        1      0.01%    100.00% # Request fanout histogram (Count)
system.membus.snoopFanout::2                        0      0.00%    100.00% # Request fanout histogram (Count)
system.membus.snoopFanout::3                        0      0.00%    100.00% # Request fanout histogram (Count)
system.membus.snoopFanout::4                        0      0.00%    100.00% # Request fanout histogram (Count)
system.membus.snoopFanout::overflows                0      0.00%    100.00% # Request fanout histogram (Count)
system.membus.snoopFanout::min_value                0                       # Request fanout histogram (Count)
system.membus.snoopFanout::max_value                1                       # Request fanout histogram (Count)
system.membus.snoopFanout::total                13922                       # Request fanout histogram (Count)
system.membus.power_state.pwrStateResidencyTicks::UNDEFINED   5502006000                       # Cumulative time (in ticks) in various power states (Tick)
system.membus.reqLayer2.occupancy            56311500                       # Layer occupancy (ticks) (Tick)
system.membus.reqLayer2.utilization               0.0                       # Layer utilization (Ratio)
system.membus.respLayer1.occupancy            7014500                       # Layer occupancy (ticks) (Tick)
system.membus.respLayer1.utilization              0.0                       # Layer utilization (Ratio)
system.membus.respLayer2.occupancy           66507250                       # Layer occupancy (ticks) (Tick)
system.membus.respLayer2.utilization              0.0                       # Layer utilization (Ratio)
system.membus.snoop_filter.totRequests          26333                       # Total number of requests made to the snoop filter. (Count)
system.membus.snoop_filter.hitSingleRequests        12412                       # Number of requests hitting in the snoop filter with a single holder of the requested data. (Count)
system.membus.snoop_filter.hitMultiRequests            0                       # Number of requests hitting in the snoop filter with multiple (>1) holders of the requested data. (Count)
system.membus.snoop_filter.totSnoops                0                       # Total number of snoops made to the snoop filter. (Count)
system.membus.snoop_filter.hitSingleSnoops            0                       # Number of snoops hitting in the snoop filter with a single holder of the requested data. (Count)
system.membus.snoop_filter.hitMultiSnoops            0                       # Number of snoops hitting in the snoop filter with multiple (>1) holders of the requested data. (Count)
system.voltage_domain.voltage                       1                       # Voltage in Volts (Volt)
system.workload.inst.arm                            0                       # number of arm instructions executed (Count)
system.workload.inst.quiesce                        0                       # number of quiesce instructions executed (Count)

---------- End Simulation Statistics   ----------
