
---------- Begin Simulation Statistics ----------
simSeconds                                   0.011217                       # Number of seconds simulated (Second)
simTicks                                  11217475500                       # Number of ticks simulated (Tick)
finalTick                                 11217475500                       # Number of ticks from beginning of simulation (restored from checkpoints and never reset) (Tick)
simFreq                                  1000000000000                       # The number of ticks per simulated second ((Tick/Second))
hostSeconds                                     63.93                       # Real time elapsed on the host (Second)
hostTickRate                                175451965                       # The number of ticks simulated per host second (ticks/s) ((Tick/Second))
hostMemory                                     672460                       # Number of bytes of host memory used (Byte)
simInsts                                     42774967                       # Number of instructions simulated (Count)
simOps                                       47115337                       # Number of ops (including micro ops) simulated (Count)
hostInstRate                                   669041                       # Simulator instruction rate (inst/s) ((Count/Second))
hostOpRate                                     736928                       # Simulator op (including micro ops) rate (op/s) ((Count/Second))
system.clk_domain.clock                          1000                       # Clock period in ticks (Tick)
system.cpu.numCycles                         22434952                       # Number of cpu cycles simulated (Cycle)
system.cpu.numWorkItemsStarted                      0                       # Number of work items this cpu started (Count)
system.cpu.numWorkItemsCompleted                    0                       # Number of work items this cpu completed (Count)
system.cpu.instsAdded                        49984067                       # Number of instructions added to the IQ (excludes non-spec) (Count)
system.cpu.nonSpecInstsAdded                     4202                       # Number of non-speculative instructions added to the IQ (Count)
system.cpu.instsIssued                       49696873                       # Number of instructions issued (Count)
system.cpu.squashedInstsIssued                   9300                       # Number of squashed instructions issued (Count)
system.cpu.squashedInstsExamined              2872931                       # Number of squashed instructions iterated over during squash; mainly for profiling (Count)
system.cpu.squashedOperandsExamined           2181000                       # Number of squashed operands that are examined and possibly removed from graph (Count)
system.cpu.squashedNonSpecRemoved                  31                       # Number of squashed non-spec instructions that were removed (Count)
system.cpu.numIssuedDist::samples            22055505                       # Number of insts issued each cycle (Count)
system.cpu.numIssuedDist::mean               2.253264                       # Number of insts issued each cycle (Count)
system.cpu.numIssuedDist::stdev              1.995001                       # Number of insts issued each cycle (Count)
system.cpu.numIssuedDist::underflows                0      0.00%      0.00% # Number of insts issued each cycle (Count)
system.cpu.numIssuedDist::0                   5776759     26.19%     26.19% # Number of insts issued each cycle (Count)
system.cpu.numIssuedDist::1                   3419729     15.51%     41.70% # Number of insts issued each cycle (Count)
system.cpu.numIssuedDist::2                   3905625     17.71%     59.41% # Number of insts issued each cycle (Count)
system.cpu.numIssuedDist::3                   2995199     13.58%     72.99% # Number of insts issued each cycle (Count)
system.cpu.numIssuedDist::4                   2829384     12.83%     85.81% # Number of insts issued each cycle (Count)
system.cpu.numIssuedDist::5                   1617111      7.33%     93.15% # Number of insts issued each cycle (Count)
system.cpu.numIssuedDist::6                    780876      3.54%     96.69% # Number of insts issued each cycle (Count)
system.cpu.numIssuedDist::7                    454626      2.06%     98.75% # Number of insts issued each cycle (Count)
system.cpu.numIssuedDist::8                    276196      1.25%    100.00% # Number of insts issued each cycle (Count)
system.cpu.numIssuedDist::overflows                 0      0.00%    100.00% # Number of insts issued each cycle (Count)
system.cpu.numIssuedDist::min_value                 0                       # Number of insts issued each cycle (Count)
system.cpu.numIssuedDist::max_value                 8                       # Number of insts issued each cycle (Count)
system.cpu.numIssuedDist::total              22055505                       # Number of insts issued each cycle (Count)
system.cpu.statFuBusy::No_OpClass                   0      0.00%      0.00% # attempts to use FU when none available (Count)
system.cpu.statFuBusy::IntAlu                  181188     22.28%     22.28% # attempts to use FU when none available (Count)
system.cpu.statFuBusy::IntMult                  81418     10.01%     32.29% # attempts to use FU when none available (Count)
system.cpu.statFuBusy::IntDiv                       0      0.00%     32.29% # attempts to use FU when none available (Count)
system.cpu.statFuBusy::FloatAdd                     0      0.00%     32.29% # attempts to use FU when none available (Count)
system.cpu.statFuBusy::FloatCmp                     0      0.00%     32.29% # attempts to use FU when none available (Count)
system.cpu.statFuBusy::FloatCvt                     0      0.00%     32.29% # attempts to use FU when none available (Count)
system.cpu.statFuBusy::FloatMult                    0      0.00%     32.29% # attempts to use FU when none available (Count)
system.cpu.statFuBusy::FloatMultAcc                 0      0.00%     32.29% # attempts to use FU when none available (Count)
system.cpu.statFuBusy::FloatDiv                     0      0.00%     32.29% # attempts to use FU when none available (Count)
system.cpu.statFuBusy::FloatMisc                    0      0.00%     32.29% # attempts to use FU when none available (Count)
system.cpu.statFuBusy::FloatSqrt                    0      0.00%     32.29% # attempts to use FU when none available (Count)
system.cpu.statFuBusy::SimdAdd                      0      0.00%     32.29% # attempts to use FU when none available (Count)
system.cpu.statFuBusy::SimdAddAcc                   0      0.00%     32.29% # attempts to use FU when none available (Count)
system.cpu.statFuBusy::SimdAlu                      3      0.00%     32.29% # attempts to use FU when none available (Count)
system.cpu.statFuBusy::SimdCmp                   3606      0.44%     32.74% # attempts to use FU when none available (Count)
system.cpu.statFuBusy::SimdCvt                      0      0.00%     32.74% # attempts to use FU when none available (Count)
system.cpu.statFuBusy::SimdMisc                     0      0.00%     32.74% # attempts to use FU when none available (Count)
system.cpu.statFuBusy::SimdMult                     0      0.00%     32.74% # attempts to use FU when none available (Count)
system.cpu.statFuBusy::SimdMultAcc                  0      0.00%     32.74% # attempts to use FU when none available (Count)
system.cpu.statFuBusy::SimdShift                    0      0.00%     32.74% # attempts to use FU when none available (Count)
system.cpu.statFuBusy::SimdShiftAcc                 0      0.00%     32.74% # attempts to use FU when none available (Count)
system.cpu.statFuBusy::SimdDiv                      0      0.00%     32.74% # attempts to use FU when none available (Count)
system.cpu.statFuBusy::SimdSqrt                     0      0.00%     32.74% # attempts to use FU when none available (Count)
system.cpu.statFuBusy::SimdFloatAdd                 0      0.00%     32.74% # attempts to use FU when none available (Count)
system.cpu.statFuBusy::SimdFloatAlu                 0      0.00%     32.74% # attempts to use FU when none available (Count)
system.cpu.statFuBusy::SimdFloatCmp                 0      0.00%     32.74% # attempts to use FU when none available (Count)
system.cpu.statFuBusy::SimdFloatCvt                 0      0.00%     32.74% # attempts to use FU when none available (Count)
system.cpu.statFuBusy::SimdFloatDiv                 0      0.00%     32.74% # attempts to use FU when none available (Count)
system.cpu.statFuBusy::SimdFloatMisc                0      0.00%     32.74% # attempts to use FU when none available (Count)
system.cpu.statFuBusy::SimdFloatMult                0      0.00%     32.74% # attempts to use FU when none available (Count)
system.cpu.statFuBusy::SimdFloatMultAcc             0      0.00%     32.74% # attempts to use FU when none available (Count)
system.cpu.statFuBusy::SimdFloatSqrt                0      0.00%     32.74% # attempts to use FU when none available (Count)
system.cpu.statFuBusy::SimdReduceAdd                0      0.00%     32.74% # attempts to use FU when none available (Count)
system.cpu.statFuBusy::SimdReduceAlu                0      0.00%     32.74% # attempts to use FU when none available (Count)
system.cpu.statFuBusy::SimdReduceCmp                0      0.00%     32.74% # attempts to use FU when none available (Count)
system.cpu.statFuBusy::SimdFloatReduceAdd            0      0.00%     32.74% # attempts to use FU when none available (Count)
system.cpu.statFuBusy::SimdFloatReduceCmp            0      0.00%     32.74% # attempts to use FU when none available (Count)
system.cpu.statFuBusy::SimdAes                      0      0.00%     32.74% # attempts to use FU when none available (Count)
system.cpu.statFuBusy::SimdAesMix                   0      0.00%     32.74% # attempts to use FU when none available (Count)
system.cpu.statFuBusy::SimdSha1Hash                 0      0.00%     32.74% # attempts to use FU when none available (Count)
system.cpu.statFuBusy::SimdSha1Hash2                0      0.00%     32.74% # attempts to use FU when none available (Count)
system.cpu.statFuBusy::SimdSha256Hash               0      0.00%     32.74% # attempts to use FU when none available (Count)
system.cpu.statFuBusy::SimdSha256Hash2              0      0.00%     32.74% # attempts to use FU when none available (Count)
system.cpu.statFuBusy::SimdShaSigma2                0      0.00%     32.74% # attempts to use FU when none available (Count)
system.cpu.statFuBusy::SimdShaSigma3                0      0.00%     32.74% # attempts to use FU when none available (Count)
system.cpu.statFuBusy::SimdPredAlu                  0      0.00%     32.74% # attempts to use FU when none available (Count)
system.cpu.statFuBusy::MemRead                 373848     45.97%     78.71% # attempts to use FU when none available (Count)
system.cpu.statFuBusy::MemWrite                173110     21.29%    100.00% # attempts to use FU when none available (Count)
system.cpu.statFuBusy::FloatMemRead                 0      0.00%    100.00% # attempts to use FU when none available (Count)
system.cpu.statFuBusy::FloatMemWrite                0      0.00%    100.00% # attempts to use FU when none available (Count)
system.cpu.statFuBusy::IprAccess                    0      0.00%    100.00% # attempts to use FU when none available (Count)
system.cpu.statFuBusy::InstPrefetch                 0      0.00%    100.00% # attempts to use FU when none available (Count)
system.cpu.statIssuedInstType_0::No_OpClass        27823      0.06%      0.06% # Number of instructions issued per FU type, per thread (Count)
system.cpu.statIssuedInstType_0::IntAlu      31799006     63.99%     64.04% # Number of instructions issued per FU type, per thread (Count)
system.cpu.statIssuedInstType_0::IntMult       641407      1.29%     65.33% # Number of instructions issued per FU type, per thread (Count)
system.cpu.statIssuedInstType_0::IntDiv        154486      0.31%     65.64% # Number of instructions issued per FU type, per thread (Count)
system.cpu.statIssuedInstType_0::FloatAdd       278579      0.56%     66.20% # Number of instructions issued per FU type, per thread (Count)
system.cpu.statIssuedInstType_0::FloatCmp        16391      0.03%     66.24% # Number of instructions issued per FU type, per thread (Count)
system.cpu.statIssuedInstType_0::FloatCvt            0      0.00%     66.24% # Number of instructions issued per FU type, per thread (Count)
system.cpu.statIssuedInstType_0::FloatMult       262181      0.53%     66.76% # Number of instructions issued per FU type, per thread (Count)
system.cpu.statIssuedInstType_0::FloatMultAcc            0      0.00%     66.76% # Number of instructions issued per FU type, per thread (Count)
system.cpu.statIssuedInstType_0::FloatDiv            0      0.00%     66.76% # Number of instructions issued per FU type, per thread (Count)
system.cpu.statIssuedInstType_0::FloatMisc        61015      0.12%     66.89% # Number of instructions issued per FU type, per thread (Count)
system.cpu.statIssuedInstType_0::FloatSqrt            0      0.00%     66.89% # Number of instructions issued per FU type, per thread (Count)
system.cpu.statIssuedInstType_0::SimdAdd        63175      0.13%     67.01% # Number of instructions issued per FU type, per thread (Count)
system.cpu.statIssuedInstType_0::SimdAddAcc            0      0.00%     67.01% # Number of instructions issued per FU type, per thread (Count)
system.cpu.statIssuedInstType_0::SimdAlu       118766      0.24%     67.25% # Number of instructions issued per FU type, per thread (Count)
system.cpu.statIssuedInstType_0::SimdCmp       111196      0.22%     67.48% # Number of instructions issued per FU type, per thread (Count)
system.cpu.statIssuedInstType_0::SimdCvt            0      0.00%     67.48% # Number of instructions issued per FU type, per thread (Count)
system.cpu.statIssuedInstType_0::SimdMisc        76352      0.15%     67.63% # Number of instructions issued per FU type, per thread (Count)
system.cpu.statIssuedInstType_0::SimdMult            0      0.00%     67.63% # Number of instructions issued per FU type, per thread (Count)
system.cpu.statIssuedInstType_0::SimdMultAcc            0      0.00%     67.63% # Number of instructions issued per FU type, per thread (Count)
system.cpu.statIssuedInstType_0::SimdShift            0      0.00%     67.63% # Number of instructions issued per FU type, per thread (Count)
system.cpu.statIssuedInstType_0::SimdShiftAcc            0      0.00%     67.63% # Number of instructions issued per FU type, per thread (Count)
system.cpu.statIssuedInstType_0::SimdDiv            0      0.00%     67.63% # Number of instructions issued per FU type, per thread (Count)
system.cpu.statIssuedInstType_0::SimdSqrt            0      0.00%     67.63% # Number of instructions issued per FU type, per thread (Count)
system.cpu.statIssuedInstType_0::SimdFloatAdd            0      0.00%     67.63% # Number of instructions issued per FU type, per thread (Count)
system.cpu.statIssuedInstType_0::SimdFloatAlu            0      0.00%     67.63% # Number of instructions issued per FU type, per thread (Count)
system.cpu.statIssuedInstType_0::SimdFloatCmp            0      0.00%     67.63% # Number of instructions issued per FU type, per thread (Count)
system.cpu.statIssuedInstType_0::SimdFloatCvt            0      0.00%     67.63% # Number of instructions issued per FU type, per thread (Count)
system.cpu.statIssuedInstType_0::SimdFloatDiv            0      0.00%     67.63% # Number of instructions issued per FU type, per thread (Count)
system.cpu.statIssuedInstType_0::SimdFloatMisc            0      0.00%     67.63% # Number of instructions issued per FU type, per thread (Count)
system.cpu.statIssuedInstType_0::SimdFloatMult            0      0.00%     67.63% # Number of instructions issued per FU type, per thread (Count)
system.cpu.statIssuedInstType_0::SimdFloatMultAcc            0      0.00%     67.63% # Number of instructions issued per FU type, per thread (Count)
system.cpu.statIssuedInstType_0::SimdFloatSqrt            0      0.00%     67.63% # Number of instructions issued per FU type, per thread (Count)
system.cpu.statIssuedInstType_0::SimdReduceAdd            0      0.00%     67.63% # Number of instructions issued per FU type, per thread (Count)
system.cpu.statIssuedInstType_0::SimdReduceAlu            0      0.00%     67.63% # Number of instructions issued per FU type, per thread (Count)
system.cpu.statIssuedInstType_0::SimdReduceCmp            0      0.00%     67.63% # Number of instructions issued per FU type, per thread (Count)
system.cpu.statIssuedInstType_0::SimdFloatReduceAdd            0      0.00%     67.63% # Number of instructions issued per FU type, per thread (Count)
system.cpu.statIssuedInstType_0::SimdFloatReduceCmp            0      0.00%     67.63% # Number of instructions issued per FU type, per thread (Count)
system.cpu.statIssuedInstType_0::SimdAes            0      0.00%     67.63% # Number of instructions issued per FU type, per thread (Count)
system.cpu.statIssuedInstType_0::SimdAesMix            0      0.00%     67.63% # Number of instructions issued per FU type, per thread (Count)
system.cpu.statIssuedInstType_0::SimdSha1Hash            0      0.00%     67.63% # Number of instructions issued per FU type, per thread (Count)
system.cpu.statIssuedInstType_0::SimdSha1Hash2            0      0.00%     67.63% # Number of instructions issued per FU type, per thread (Count)
system.cpu.statIssuedInstType_0::SimdSha256Hash            0      0.00%     67.63% # Number of instructions issued per FU type, per thread (Count)
system.cpu.statIssuedInstType_0::SimdSha256Hash2            0      0.00%     67.63% # Number of instructions issued per FU type, per thread (Count)
system.cpu.statIssuedInstType_0::SimdShaSigma2            0      0.00%     67.63% # Number of instructions issued per FU type, per thread (Count)
system.cpu.statIssuedInstType_0::SimdShaSigma3            0      0.00%     67.63% # Number of instructions issued per FU type, per thread (Count)
system.cpu.statIssuedInstType_0::SimdPredAlu            0      0.00%     67.63% # Number of instructions issued per FU type, per thread (Count)
system.cpu.statIssuedInstType_0::MemRead     10428885     20.98%     88.62% # Number of instructions issued per FU type, per thread (Count)
system.cpu.statIssuedInstType_0::MemWrite      5657611     11.38%    100.00% # Number of instructions issued per FU type, per thread (Count)
system.cpu.statIssuedInstType_0::FloatMemRead            0      0.00%    100.00% # Number of instructions issued per FU type, per thread (Count)
system.cpu.statIssuedInstType_0::FloatMemWrite            0      0.00%    100.00% # Number of instructions issued per FU type, per thread (Count)
system.cpu.statIssuedInstType_0::IprAccess            0      0.00%    100.00% # Number of instructions issued per FU type, per thread (Count)
system.cpu.statIssuedInstType_0::InstPrefetch            0      0.00%    100.00% # Number of instructions issued per FU type, per thread (Count)
system.cpu.statIssuedInstType_0::total       49696873                       # Number of instructions issued per FU type, per thread (Count)
system.cpu.issueRate                         2.215154                       # Inst issue rate ((Count/Cycle))
system.cpu.fuBusy                              813173                       # FU busy when requested (Count)
system.cpu.fuBusyRate                        0.016363                       # FU busy rate (busy events/executed inst) ((Count/Count))
system.cpu.intInstQueueReads                116632277                       # Number of integer instruction queue reads (Count)
system.cpu.intInstQueueWrites                49945596                       # Number of integer instruction queue writes (Count)
system.cpu.intInstQueueWakeupAccesses        45885071                       # Number of integer instruction queue wakeup accesses (Count)
system.cpu.fpInstQueueReads                         0                       # Number of floating instruction queue reads (Count)
system.cpu.fpInstQueueWrites                        0                       # Number of floating instruction queue writes (Count)
system.cpu.fpInstQueueWakeupAccesses                0                       # Number of floating instruction queue wakeup accesses (Count)
system.cpu.vecInstQueueReads                  5639447                       # Number of vector instruction queue reads (Count)
system.cpu.vecInstQueueWrites                 2916507                       # Number of vector instruction queue writes (Count)
system.cpu.vecInstQueueWakeupAccesses         2792855                       # Number of vector instruction queue wakeup accesses (Count)
system.cpu.intAluAccesses                    47680437                       # Number of integer alu accesses (Count)
system.cpu.fpAluAccesses                            0                       # Number of floating point alu accesses (Count)
system.cpu.vecAluAccesses                     2801786                       # Number of vector alu accesses (Count)
system.cpu.numInsts                          49516734                       # Number of executed instructions (Count)
system.cpu.numLoadInsts                      10375524                       # Number of load instructions executed (Count)
system.cpu.numSquashedInsts                    180139                       # Number of squashed instructions skipped in execute (Count)
system.cpu.numSwp                                   0                       # Number of swp insts executed (Count)
system.cpu.numNop                               65685                       # Number of nop insts executed (Count)
system.cpu.numRefs                           16014040                       # Number of memory reference insts executed (Count)
system.cpu.numBranches                        6874322                       # Number of branches executed (Count)
system.cpu.numStoreInsts                      5638516                       # Number of stores executed (Count)
system.cpu.numRate                           2.207125                       # Inst execution rate ((Count/Cycle))
system.cpu.timesIdled                           16827                       # Number of times that the entire CPU went into an idle state and unscheduled itself (Count)
system.cpu.idleCycles                          379447                       # Total number of cycles that the CPU has spent unscheduled due to idling (Cycle)
system.cpu.committedInsts                    42774967                       # Number of Instructions Simulated (Count)
system.cpu.committedOps                      47115337                       # Number of Ops (including micro ops) Simulated (Count)
system.cpu.cpi                               0.524488                       # CPI: Cycles Per Instruction ((Cycle/Count))
system.cpu.totalCpi                          0.524488                       # CPI: Total CPI of All Threads ((Cycle/Count))
system.cpu.ipc                               1.906622                       # IPC: Instructions Per Cycle ((Count/Cycle))
system.cpu.totalIpc                          1.906622                       # IPC: Total IPC of All Threads ((Count/Cycle))
system.cpu.intRegfileReads                   58836260                       # Number of integer regfile reads (Count)
system.cpu.intRegfileWrites                  35645570                       # Number of integer regfile writes (Count)
system.cpu.vecRegfileReads                    2399095                       # number of vector regfile reads (Count)
system.cpu.vecRegfileWrites                   2137952                       # number of vector regfile writes (Count)
system.cpu.ccRegfileReads                    14571060                       # number of cc regfile reads (Count)
system.cpu.ccRegfileWrites                   14429027                       # number of cc regfile writes (Count)
system.cpu.miscRegfileReads                  96069659                       # number of misc regfile reads (Count)
system.cpu.miscRegfileWrites                   561209                       # number of misc regfile writes (Count)
system.cpu.MemDepUnit__0.insertedLoads        9853343                       # Number of loads inserted to the mem dependence unit. (Count)
system.cpu.MemDepUnit__0.insertedStores       5739408                       # Number of stores inserted to the mem dependence unit. (Count)
system.cpu.MemDepUnit__0.conflictingLoads      2955869                       # Number of conflicting loads. (Count)
system.cpu.MemDepUnit__0.conflictingStores       966407                       # Number of conflicting stores. (Count)
system.cpu.MemDepUnit__1.insertedLoads              0                       # Number of loads inserted to the mem dependence unit. (Count)
system.cpu.MemDepUnit__1.insertedStores             0                       # Number of stores inserted to the mem dependence unit. (Count)
system.cpu.MemDepUnit__1.conflictingLoads            0                       # Number of conflicting loads. (Count)
system.cpu.MemDepUnit__1.conflictingStores            0                       # Number of conflicting stores. (Count)
system.cpu.MemDepUnit__2.insertedLoads              0                       # Number of loads inserted to the mem dependence unit. (Count)
system.cpu.MemDepUnit__2.insertedStores             0                       # Number of stores inserted to the mem dependence unit. (Count)
system.cpu.MemDepUnit__2.conflictingLoads            0                       # Number of conflicting loads. (Count)
system.cpu.MemDepUnit__2.conflictingStores            0                       # Number of conflicting stores. (Count)
system.cpu.MemDepUnit__3.insertedLoads              0                       # Number of loads inserted to the mem dependence unit. (Count)
system.cpu.MemDepUnit__3.insertedStores             0                       # Number of stores inserted to the mem dependence unit. (Count)
system.cpu.MemDepUnit__3.conflictingLoads            0                       # Number of conflicting loads. (Count)
system.cpu.MemDepUnit__3.conflictingStores            0                       # Number of conflicting stores. (Count)
system.cpu.branchPred.lookups                 7464569                       # Number of BP lookups (Count)
system.cpu.branchPred.condPredicted           5657247                       # Number of conditional branches predicted (Count)
system.cpu.branchPred.condIncorrect            142326                       # Number of conditional branches incorrect (Count)
system.cpu.branchPred.BTBLookups              4175419                       # Number of BTB lookups (Count)
system.cpu.branchPred.BTBHits                 4124145                       # Number of BTB hits (Count)
system.cpu.branchPred.BTBHitRatio            0.987720                       # BTB Hit Ratio (Ratio)
system.cpu.branchPred.RASUsed                  575110                       # Number of times the RAS was used to get a target. (Count)
system.cpu.branchPred.RASIncorrect                  3                       # Number of incorrect RAS predictions. (Count)
system.cpu.branchPred.indirectLookups           76329                       # Number of indirect predictor lookups. (Count)
system.cpu.branchPred.indirectHits              75510                       # Number of indirect target hits. (Count)
system.cpu.branchPred.indirectMisses              819                       # Number of indirect misses. (Count)
system.cpu.branchPred.indirectMispredicted          100                       # Number of mispredicted indirect branches. (Count)
system.cpu.commit.commitSquashedInsts         2882421                       # The number of squashed insts skipped by commit (Count)
system.cpu.commit.commitNonSpecStalls            4171                       # The number of times commit has been forced to stall to communicate backwards (Count)
system.cpu.commit.branchMispredicts            117326                       # The number of times a branch was mispredicted (Count)
system.cpu.commit.numCommittedDist::samples     21631584                       # Number of insts commited each cycle (Count)
system.cpu.commit.numCommittedDist::mean     2.180663                       # Number of insts commited each cycle (Count)
system.cpu.commit.numCommittedDist::stdev     2.864700                       # Number of insts commited each cycle (Count)
system.cpu.commit.numCommittedDist::underflows            0      0.00%      0.00% # Number of insts commited each cycle (Count)
system.cpu.commit.numCommittedDist::0         8766037     40.52%     40.52% # Number of insts commited each cycle (Count)
system.cpu.commit.numCommittedDist::1         4714763     21.80%     62.32% # Number of insts commited each cycle (Count)
system.cpu.commit.numCommittedDist::2         2140420      9.89%     72.21% # Number of insts commited each cycle (Count)
system.cpu.commit.numCommittedDist::3          992096      4.59%     76.80% # Number of insts commited each cycle (Count)
system.cpu.commit.numCommittedDist::4          760868      3.52%     80.32% # Number of insts commited each cycle (Count)
system.cpu.commit.numCommittedDist::5          276464      1.28%     81.60% # Number of insts commited each cycle (Count)
system.cpu.commit.numCommittedDist::6          211598      0.98%     82.57% # Number of insts commited each cycle (Count)
system.cpu.commit.numCommittedDist::7          650780      3.01%     85.58% # Number of insts commited each cycle (Count)
system.cpu.commit.numCommittedDist::8         3118558     14.42%    100.00% # Number of insts commited each cycle (Count)
system.cpu.commit.numCommittedDist::overflows            0      0.00%    100.00% # Number of insts commited each cycle (Count)
system.cpu.commit.numCommittedDist::min_value            0                       # Number of insts commited each cycle (Count)
system.cpu.commit.numCommittedDist::max_value            8                       # Number of insts commited each cycle (Count)
system.cpu.commit.numCommittedDist::total     21631584                       # Number of insts commited each cycle (Count)
system.cpu.commit.instsCommitted             42830825                       # Number of instructions committed (Count)
system.cpu.commit.opsCommitted               47171195                       # Number of ops (including micro ops) committed (Count)
system.cpu.commit.memRefs                    14762161                       # Number of memory references committed (Count)
system.cpu.commit.loads                       9356228                       # Number of loads committed (Count)
system.cpu.commit.amos                             20                       # Number of atomic instructions committed (Count)
system.cpu.commit.membars                          24                       # Number of memory barriers committed (Count)
system.cpu.commit.branches                    6624718                       # Number of branches committed (Count)
system.cpu.commit.vectorInstructions          2785221                       # Number of committed Vector instructions. (Count)
system.cpu.commit.floating                          0                       # Number of committed floating point instructions. (Count)
system.cpu.commit.integer                    41972714                       # Number of committed integer instructions. (Count)
system.cpu.commit.functionCalls                508101                       # Number of function calls committed. (Count)
system.cpu.commit.committedInstType_0::No_OpClass        27678      0.06%      0.06% # Class of committed instruction (Count)
system.cpu.commit.committedInstType_0::IntAlu     30612660     64.90%     64.96% # Class of committed instruction (Count)
system.cpu.commit.committedInstType_0::IntMult       641224      1.36%     66.31% # Class of committed instruction (Count)
system.cpu.commit.committedInstType_0::IntDiv       153813      0.33%     66.64% # Class of committed instruction (Count)
system.cpu.commit.committedInstType_0::FloatAdd       278528      0.59%     67.23% # Class of committed instruction (Count)
system.cpu.commit.committedInstType_0::FloatCmp        16384      0.03%     67.27% # Class of committed instruction (Count)
system.cpu.commit.committedInstType_0::FloatCvt            0      0.00%     67.27% # Class of committed instruction (Count)
system.cpu.commit.committedInstType_0::FloatMult       262144      0.56%     67.82% # Class of committed instruction (Count)
system.cpu.commit.committedInstType_0::FloatMultAcc            0      0.00%     67.82% # Class of committed instruction (Count)
system.cpu.commit.committedInstType_0::FloatDiv            0      0.00%     67.82% # Class of committed instruction (Count)
system.cpu.commit.committedInstType_0::FloatMisc        49152      0.10%     67.93% # Class of committed instruction (Count)
system.cpu.commit.committedInstType_0::FloatSqrt            0      0.00%     67.93% # Class of committed instruction (Count)
system.cpu.commit.committedInstType_0::SimdAdd        62740      0.13%     68.06% # Class of committed instruction (Count)
system.cpu.commit.committedInstType_0::SimdAddAcc            0      0.00%     68.06% # Class of committed instruction (Count)
system.cpu.commit.committedInstType_0::SimdAlu       118041      0.25%     68.31% # Class of committed instruction (Count)
system.cpu.commit.committedInstType_0::SimdCmp       110616      0.23%     68.54% # Class of committed instruction (Count)
system.cpu.commit.committedInstType_0::SimdCvt            0      0.00%     68.54% # Class of committed instruction (Count)
system.cpu.commit.committedInstType_0::SimdMisc        76054      0.16%     68.71% # Class of committed instruction (Count)
system.cpu.commit.committedInstType_0::SimdMult            0      0.00%     68.71% # Class of committed instruction (Count)
system.cpu.commit.committedInstType_0::SimdMultAcc            0      0.00%     68.71% # Class of committed instruction (Count)
system.cpu.commit.committedInstType_0::SimdShift            0      0.00%     68.71% # Class of committed instruction (Count)
system.cpu.commit.committedInstType_0::SimdShiftAcc            0      0.00%     68.71% # Class of committed instruction (Count)
system.cpu.commit.committedInstType_0::SimdDiv            0      0.00%     68.71% # Class of committed instruction (Count)
system.cpu.commit.committedInstType_0::SimdSqrt            0      0.00%     68.71% # Class of committed instruction (Count)
system.cpu.commit.committedInstType_0::SimdFloatAdd            0      0.00%     68.71% # Class of committed instruction (Count)
system.cpu.commit.committedInstType_0::SimdFloatAlu            0      0.00%     68.71% # Class of committed instruction (Count)
system.cpu.commit.committedInstType_0::SimdFloatCmp            0      0.00%     68.71% # Class of committed instruction (Count)
system.cpu.commit.committedInstType_0::SimdFloatCvt            0      0.00%     68.71% # Class of committed instruction (Count)
system.cpu.commit.committedInstType_0::SimdFloatDiv            0      0.00%     68.71% # Class of committed instruction (Count)
system.cpu.commit.committedInstType_0::SimdFloatMisc            0      0.00%     68.71% # Class of committed instruction (Count)
system.cpu.commit.committedInstType_0::SimdFloatMult            0      0.00%     68.71% # Class of committed instruction (Count)
system.cpu.commit.committedInstType_0::SimdFloatMultAcc            0      0.00%     68.71% # Class of committed instruction (Count)
system.cpu.commit.committedInstType_0::SimdFloatSqrt            0      0.00%     68.71% # Class of committed instruction (Count)
system.cpu.commit.committedInstType_0::SimdReduceAdd            0      0.00%     68.71% # Class of committed instruction (Count)
system.cpu.commit.committedInstType_0::SimdReduceAlu            0      0.00%     68.71% # Class of committed instruction (Count)
system.cpu.commit.committedInstType_0::SimdReduceCmp            0      0.00%     68.71% # Class of committed instruction (Count)
system.cpu.commit.committedInstType_0::SimdFloatReduceAdd            0      0.00%     68.71% # Class of committed instruction (Count)
system.cpu.commit.committedInstType_0::SimdFloatReduceCmp            0      0.00%     68.71% # Class of committed instruction (Count)
system.cpu.commit.committedInstType_0::SimdAes            0      0.00%     68.71% # Class of committed instruction (Count)
system.cpu.commit.committedInstType_0::SimdAesMix            0      0.00%     68.71% # Class of committed instruction (Count)
system.cpu.commit.committedInstType_0::SimdSha1Hash            0      0.00%     68.71% # Class of committed instruction (Count)
system.cpu.commit.committedInstType_0::SimdSha1Hash2            0      0.00%     68.71% # Class of committed instruction (Count)
system.cpu.commit.committedInstType_0::SimdSha256Hash            0      0.00%     68.71% # Class of committed instruction (Count)
system.cpu.commit.committedInstType_0::SimdSha256Hash2            0      0.00%     68.71% # Class of committed instruction (Count)
system.cpu.commit.committedInstType_0::SimdShaSigma2            0      0.00%     68.71% # Class of committed instruction (Count)
system.cpu.commit.committedInstType_0::SimdShaSigma3            0      0.00%     68.71% # Class of committed instruction (Count)
system.cpu.commit.committedInstType_0::SimdPredAlu            0      0.00%     68.71% # Class of committed instruction (Count)
system.cpu.commit.committedInstType_0::MemRead      9356228     19.83%     88.54% # Class of committed instruction (Count)
system.cpu.commit.committedInstType_0::MemWrite      5405933     11.46%    100.00% # Class of committed instruction (Count)
system.cpu.commit.committedInstType_0::FloatMemRead            0      0.00%    100.00% # Class of committed instruction (Count)
system.cpu.commit.committedInstType_0::FloatMemWrite            0      0.00%    100.00% # Class of committed instruction (Count)
system.cpu.commit.committedInstType_0::IprAccess            0      0.00%    100.00% # Class of committed instruction (Count)
system.cpu.commit.committedInstType_0::InstPrefetch            0      0.00%    100.00% # Class of committed instruction (Count)
system.cpu.commit.committedInstType_0::total     47171195                       # Class of committed instruction (Count)
system.cpu.commit.commitEligibleSamples       3118558                       # number cycles where commit BW limit reached (Cycle)
system.cpu.dcache.demandHits::cpu.data       12436129                       # number of demand (read+write) hits (Count)
system.cpu.dcache.demandHits::total          12436129                       # number of demand (read+write) hits (Count)
system.cpu.dcache.overallHits::cpu.data      12465898                       # number of overall hits (Count)
system.cpu.dcache.overallHits::total         12465898                       # number of overall hits (Count)
system.cpu.dcache.demandMisses::cpu.data        40916                       # number of demand (read+write) misses (Count)
system.cpu.dcache.demandMisses::total           40916                       # number of demand (read+write) misses (Count)
system.cpu.dcache.overallMisses::cpu.data        40947                       # number of overall misses (Count)
system.cpu.dcache.overallMisses::total          40947                       # number of overall misses (Count)
system.cpu.dcache.demandMissLatency::cpu.data   2105766260                       # number of demand (read+write) miss ticks (Tick)
system.cpu.dcache.demandMissLatency::total   2105766260                       # number of demand (read+write) miss ticks (Tick)
system.cpu.dcache.overallMissLatency::cpu.data   2105766260                       # number of overall miss ticks (Tick)
system.cpu.dcache.overallMissLatency::total   2105766260                       # number of overall miss ticks (Tick)
system.cpu.dcache.demandAccesses::cpu.data     12477045                       # number of demand (read+write) accesses (Count)
system.cpu.dcache.demandAccesses::total      12477045                       # number of demand (read+write) accesses (Count)
system.cpu.dcache.overallAccesses::cpu.data     12506845                       # number of overall (read+write) accesses (Count)
system.cpu.dcache.overallAccesses::total     12506845                       # number of overall (read+write) accesses (Count)
system.cpu.dcache.demandMissRate::cpu.data     0.003279                       # miss rate for demand accesses (Ratio)
system.cpu.dcache.demandMissRate::total      0.003279                       # miss rate for demand accesses (Ratio)
system.cpu.dcache.overallMissRate::cpu.data     0.003274                       # miss rate for overall accesses (Ratio)
system.cpu.dcache.overallMissRate::total     0.003274                       # miss rate for overall accesses (Ratio)
system.cpu.dcache.demandAvgMissLatency::cpu.data 51465.594389                       # average overall miss latency ((Cycle/Count))
system.cpu.dcache.demandAvgMissLatency::total 51465.594389                       # average overall miss latency ((Cycle/Count))
system.cpu.dcache.overallAvgMissLatency::cpu.data 51426.631011                       # average overall miss latency ((Cycle/Count))
system.cpu.dcache.overallAvgMissLatency::total 51426.631011                       # average overall miss latency ((Cycle/Count))
system.cpu.dcache.blockedCycles::no_mshrs        11784                       # number of cycles access was blocked (Cycle)
system.cpu.dcache.blockedCycles::no_targets            0                       # number of cycles access was blocked (Cycle)
system.cpu.dcache.blockedCauses::no_mshrs         1434                       # number of times access was blocked (Count)
system.cpu.dcache.blockedCauses::no_targets            0                       # number of times access was blocked (Count)
system.cpu.dcache.avgBlocked::no_mshrs       8.217573                       # average number of cycles each access was blocked ((Cycle/Count))
system.cpu.dcache.avgBlocked::no_targets          nan                       # average number of cycles each access was blocked ((Cycle/Count))
system.cpu.dcache.writebacks::writebacks        10694                       # number of writebacks (Count)
system.cpu.dcache.writebacks::total             10694                       # number of writebacks (Count)
system.cpu.dcache.demandMshrHits::cpu.data        20107                       # number of demand (read+write) MSHR hits (Count)
system.cpu.dcache.demandMshrHits::total         20107                       # number of demand (read+write) MSHR hits (Count)
system.cpu.dcache.overallMshrHits::cpu.data        20107                       # number of overall MSHR hits (Count)
system.cpu.dcache.overallMshrHits::total        20107                       # number of overall MSHR hits (Count)
system.cpu.dcache.demandMshrMisses::cpu.data        20809                       # number of demand (read+write) MSHR misses (Count)
system.cpu.dcache.demandMshrMisses::total        20809                       # number of demand (read+write) MSHR misses (Count)
system.cpu.dcache.overallMshrMisses::cpu.data        20840                       # number of overall MSHR misses (Count)
system.cpu.dcache.overallMshrMisses::total        20840                       # number of overall MSHR misses (Count)
system.cpu.dcache.demandMshrMissLatency::cpu.data    974710792                       # number of demand (read+write) MSHR miss ticks (Tick)
system.cpu.dcache.demandMshrMissLatency::total    974710792                       # number of demand (read+write) MSHR miss ticks (Tick)
system.cpu.dcache.overallMshrMissLatency::cpu.data    976749792                       # number of overall MSHR miss ticks (Tick)
system.cpu.dcache.overallMshrMissLatency::total    976749792                       # number of overall MSHR miss ticks (Tick)
system.cpu.dcache.demandMshrMissRate::cpu.data     0.001668                       # mshr miss ratio for demand accesses (Ratio)
system.cpu.dcache.demandMshrMissRate::total     0.001668                       # mshr miss ratio for demand accesses (Ratio)
system.cpu.dcache.overallMshrMissRate::cpu.data     0.001666                       # mshr miss ratio for overall accesses (Ratio)
system.cpu.dcache.overallMshrMissRate::total     0.001666                       # mshr miss ratio for overall accesses (Ratio)
system.cpu.dcache.demandAvgMshrMissLatency::cpu.data 46840.828103                       # average overall mshr miss latency ((Cycle/Count))
system.cpu.dcache.demandAvgMshrMissLatency::total 46840.828103                       # average overall mshr miss latency ((Cycle/Count))
system.cpu.dcache.overallAvgMshrMissLatency::cpu.data 46868.991939                       # average overall mshr miss latency ((Cycle/Count))
system.cpu.dcache.overallAvgMshrMissLatency::total 46868.991939                       # average overall mshr miss latency ((Cycle/Count))
system.cpu.dcache.replacements                  19817                       # number of replacements (Count)
system.cpu.dcache.LoadLockedReq.hits::cpu.data            8                       # number of LoadLockedReq hits (Count)
system.cpu.dcache.LoadLockedReq.hits::total            8                       # number of LoadLockedReq hits (Count)
system.cpu.dcache.LoadLockedReq.accesses::cpu.data            8                       # number of LoadLockedReq accesses(hits+misses) (Count)
system.cpu.dcache.LoadLockedReq.accesses::total            8                       # number of LoadLockedReq accesses(hits+misses) (Count)
system.cpu.dcache.ReadReq.hits::cpu.data      7037854                       # number of ReadReq hits (Count)
system.cpu.dcache.ReadReq.hits::total         7037854                       # number of ReadReq hits (Count)
system.cpu.dcache.ReadReq.misses::cpu.data        33282                       # number of ReadReq misses (Count)
system.cpu.dcache.ReadReq.misses::total         33282                       # number of ReadReq misses (Count)
system.cpu.dcache.ReadReq.missLatency::cpu.data   1839736500                       # number of ReadReq miss ticks (Tick)
system.cpu.dcache.ReadReq.missLatency::total   1839736500                       # number of ReadReq miss ticks (Tick)
system.cpu.dcache.ReadReq.accesses::cpu.data      7071136                       # number of ReadReq accesses(hits+misses) (Count)
system.cpu.dcache.ReadReq.accesses::total      7071136                       # number of ReadReq accesses(hits+misses) (Count)
system.cpu.dcache.ReadReq.missRate::cpu.data     0.004707                       # miss rate for ReadReq accesses (Ratio)
system.cpu.dcache.ReadReq.missRate::total     0.004707                       # miss rate for ReadReq accesses (Ratio)
system.cpu.dcache.ReadReq.avgMissLatency::cpu.data 55277.221922                       # average ReadReq miss latency ((Tick/Count))
system.cpu.dcache.ReadReq.avgMissLatency::total 55277.221922                       # average ReadReq miss latency ((Tick/Count))
system.cpu.dcache.ReadReq.mshrHits::cpu.data        19490                       # number of ReadReq MSHR hits (Count)
system.cpu.dcache.ReadReq.mshrHits::total        19490                       # number of ReadReq MSHR hits (Count)
system.cpu.dcache.ReadReq.mshrMisses::cpu.data        13792                       # number of ReadReq MSHR misses (Count)
system.cpu.dcache.ReadReq.mshrMisses::total        13792                       # number of ReadReq MSHR misses (Count)
system.cpu.dcache.ReadReq.mshrMissLatency::cpu.data    745980500                       # number of ReadReq MSHR miss ticks (Tick)
system.cpu.dcache.ReadReq.mshrMissLatency::total    745980500                       # number of ReadReq MSHR miss ticks (Tick)
system.cpu.dcache.ReadReq.mshrMissRate::cpu.data     0.001950                       # mshr miss rate for ReadReq accesses (Ratio)
system.cpu.dcache.ReadReq.mshrMissRate::total     0.001950                       # mshr miss rate for ReadReq accesses (Ratio)
system.cpu.dcache.ReadReq.avgMshrMissLatency::cpu.data 54087.913283                       # average ReadReq mshr miss latency ((Tick/Count))
system.cpu.dcache.ReadReq.avgMshrMissLatency::total 54087.913283                       # average ReadReq mshr miss latency ((Tick/Count))
system.cpu.dcache.SoftPFReq.hits::cpu.data        29769                       # number of SoftPFReq hits (Count)
system.cpu.dcache.SoftPFReq.hits::total         29769                       # number of SoftPFReq hits (Count)
system.cpu.dcache.SoftPFReq.misses::cpu.data           31                       # number of SoftPFReq misses (Count)
system.cpu.dcache.SoftPFReq.misses::total           31                       # number of SoftPFReq misses (Count)
system.cpu.dcache.SoftPFReq.accesses::cpu.data        29800                       # number of SoftPFReq accesses(hits+misses) (Count)
system.cpu.dcache.SoftPFReq.accesses::total        29800                       # number of SoftPFReq accesses(hits+misses) (Count)
system.cpu.dcache.SoftPFReq.missRate::cpu.data     0.001040                       # miss rate for SoftPFReq accesses (Ratio)
system.cpu.dcache.SoftPFReq.missRate::total     0.001040                       # miss rate for SoftPFReq accesses (Ratio)
system.cpu.dcache.SoftPFReq.mshrMisses::cpu.data           31                       # number of SoftPFReq MSHR misses (Count)
system.cpu.dcache.SoftPFReq.mshrMisses::total           31                       # number of SoftPFReq MSHR misses (Count)
system.cpu.dcache.SoftPFReq.mshrMissLatency::cpu.data      2039000                       # number of SoftPFReq MSHR miss ticks (Tick)
system.cpu.dcache.SoftPFReq.mshrMissLatency::total      2039000                       # number of SoftPFReq MSHR miss ticks (Tick)
system.cpu.dcache.SoftPFReq.mshrMissRate::cpu.data     0.001040                       # mshr miss rate for SoftPFReq accesses (Ratio)
system.cpu.dcache.SoftPFReq.mshrMissRate::total     0.001040                       # mshr miss rate for SoftPFReq accesses (Ratio)
system.cpu.dcache.SoftPFReq.avgMshrMissLatency::cpu.data 65774.193548                       # average SoftPFReq mshr miss latency ((Tick/Count))
system.cpu.dcache.SoftPFReq.avgMshrMissLatency::total 65774.193548                       # average SoftPFReq mshr miss latency ((Tick/Count))
system.cpu.dcache.StoreCondReq.hits::cpu.data            4                       # number of StoreCondReq hits (Count)
system.cpu.dcache.StoreCondReq.hits::total            4                       # number of StoreCondReq hits (Count)
system.cpu.dcache.StoreCondReq.accesses::cpu.data            4                       # number of StoreCondReq accesses(hits+misses) (Count)
system.cpu.dcache.StoreCondReq.accesses::total            4                       # number of StoreCondReq accesses(hits+misses) (Count)
system.cpu.dcache.SwapReq.hits::cpu.data           19                       # number of SwapReq hits (Count)
system.cpu.dcache.SwapReq.hits::total              19                       # number of SwapReq hits (Count)
system.cpu.dcache.SwapReq.misses::cpu.data            1                       # number of SwapReq misses (Count)
system.cpu.dcache.SwapReq.misses::total             1                       # number of SwapReq misses (Count)
system.cpu.dcache.SwapReq.missLatency::cpu.data        79000                       # number of SwapReq miss ticks (Tick)
system.cpu.dcache.SwapReq.missLatency::total        79000                       # number of SwapReq miss ticks (Tick)
system.cpu.dcache.SwapReq.accesses::cpu.data           20                       # number of SwapReq accesses(hits+misses) (Count)
system.cpu.dcache.SwapReq.accesses::total           20                       # number of SwapReq accesses(hits+misses) (Count)
system.cpu.dcache.SwapReq.missRate::cpu.data     0.050000                       # miss rate for SwapReq accesses (Ratio)
system.cpu.dcache.SwapReq.missRate::total     0.050000                       # miss rate for SwapReq accesses (Ratio)
system.cpu.dcache.SwapReq.avgMissLatency::cpu.data        79000                       # average SwapReq miss latency ((Tick/Count))
system.cpu.dcache.SwapReq.avgMissLatency::total        79000                       # average SwapReq miss latency ((Tick/Count))
system.cpu.dcache.SwapReq.mshrMisses::cpu.data            1                       # number of SwapReq MSHR misses (Count)
system.cpu.dcache.SwapReq.mshrMisses::total            1                       # number of SwapReq MSHR misses (Count)
system.cpu.dcache.SwapReq.mshrMissLatency::cpu.data        78000                       # number of SwapReq MSHR miss ticks (Tick)
system.cpu.dcache.SwapReq.mshrMissLatency::total        78000                       # number of SwapReq MSHR miss ticks (Tick)
system.cpu.dcache.SwapReq.mshrMissRate::cpu.data     0.050000                       # mshr miss rate for SwapReq accesses (Ratio)
system.cpu.dcache.SwapReq.mshrMissRate::total     0.050000                       # mshr miss rate for SwapReq accesses (Ratio)
system.cpu.dcache.SwapReq.avgMshrMissLatency::cpu.data        78000                       # average SwapReq mshr miss latency ((Tick/Count))
system.cpu.dcache.SwapReq.avgMshrMissLatency::total        78000                       # average SwapReq mshr miss latency ((Tick/Count))
system.cpu.dcache.WriteLineReq.misses::cpu.data         1540                       # number of WriteLineReq misses (Count)
system.cpu.dcache.WriteLineReq.misses::total         1540                       # number of WriteLineReq misses (Count)
system.cpu.dcache.WriteLineReq.missLatency::cpu.data     22160293                       # number of WriteLineReq miss ticks (Tick)
system.cpu.dcache.WriteLineReq.missLatency::total     22160293                       # number of WriteLineReq miss ticks (Tick)
system.cpu.dcache.WriteLineReq.accesses::cpu.data         1540                       # number of WriteLineReq accesses(hits+misses) (Count)
system.cpu.dcache.WriteLineReq.accesses::total         1540                       # number of WriteLineReq accesses(hits+misses) (Count)
system.cpu.dcache.WriteLineReq.missRate::cpu.data            1                       # miss rate for WriteLineReq accesses (Ratio)
system.cpu.dcache.WriteLineReq.missRate::total            1                       # miss rate for WriteLineReq accesses (Ratio)
system.cpu.dcache.WriteLineReq.avgMissLatency::cpu.data 14389.800649                       # average WriteLineReq miss latency ((Tick/Count))
system.cpu.dcache.WriteLineReq.avgMissLatency::total 14389.800649                       # average WriteLineReq miss latency ((Tick/Count))
system.cpu.dcache.WriteLineReq.mshrMisses::cpu.data         1540                       # number of WriteLineReq MSHR misses (Count)
system.cpu.dcache.WriteLineReq.mshrMisses::total         1540                       # number of WriteLineReq MSHR misses (Count)
system.cpu.dcache.WriteLineReq.mshrMissLatency::cpu.data     20620293                       # number of WriteLineReq MSHR miss ticks (Tick)
system.cpu.dcache.WriteLineReq.mshrMissLatency::total     20620293                       # number of WriteLineReq MSHR miss ticks (Tick)
system.cpu.dcache.WriteLineReq.mshrMissRate::cpu.data            1                       # mshr miss rate for WriteLineReq accesses (Ratio)
system.cpu.dcache.WriteLineReq.mshrMissRate::total            1                       # mshr miss rate for WriteLineReq accesses (Ratio)
system.cpu.dcache.WriteLineReq.avgMshrMissLatency::cpu.data 13389.800649                       # average WriteLineReq mshr miss latency ((Tick/Count))
system.cpu.dcache.WriteLineReq.avgMshrMissLatency::total 13389.800649                       # average WriteLineReq mshr miss latency ((Tick/Count))
system.cpu.dcache.WriteReq.hits::cpu.data      5398275                       # number of WriteReq hits (Count)
system.cpu.dcache.WriteReq.hits::total        5398275                       # number of WriteReq hits (Count)
system.cpu.dcache.WriteReq.misses::cpu.data         6094                       # number of WriteReq misses (Count)
system.cpu.dcache.WriteReq.misses::total         6094                       # number of WriteReq misses (Count)
system.cpu.dcache.WriteReq.missLatency::cpu.data    243869467                       # number of WriteReq miss ticks (Tick)
system.cpu.dcache.WriteReq.missLatency::total    243869467                       # number of WriteReq miss ticks (Tick)
system.cpu.dcache.WriteReq.accesses::cpu.data      5404369                       # number of WriteReq accesses(hits+misses) (Count)
system.cpu.dcache.WriteReq.accesses::total      5404369                       # number of WriteReq accesses(hits+misses) (Count)
system.cpu.dcache.WriteReq.missRate::cpu.data     0.001128                       # miss rate for WriteReq accesses (Ratio)
system.cpu.dcache.WriteReq.missRate::total     0.001128                       # miss rate for WriteReq accesses (Ratio)
system.cpu.dcache.WriteReq.avgMissLatency::cpu.data 40017.963078                       # average WriteReq miss latency ((Tick/Count))
system.cpu.dcache.WriteReq.avgMissLatency::total 40017.963078                       # average WriteReq miss latency ((Tick/Count))
system.cpu.dcache.WriteReq.mshrHits::cpu.data          617                       # number of WriteReq MSHR hits (Count)
system.cpu.dcache.WriteReq.mshrHits::total          617                       # number of WriteReq MSHR hits (Count)
system.cpu.dcache.WriteReq.mshrMisses::cpu.data         5477                       # number of WriteReq MSHR misses (Count)
system.cpu.dcache.WriteReq.mshrMisses::total         5477                       # number of WriteReq MSHR misses (Count)
system.cpu.dcache.WriteReq.mshrMissLatency::cpu.data    208109999                       # number of WriteReq MSHR miss ticks (Tick)
system.cpu.dcache.WriteReq.mshrMissLatency::total    208109999                       # number of WriteReq MSHR miss ticks (Tick)
system.cpu.dcache.WriteReq.mshrMissRate::cpu.data     0.001013                       # mshr miss rate for WriteReq accesses (Ratio)
system.cpu.dcache.WriteReq.mshrMissRate::total     0.001013                       # mshr miss rate for WriteReq accesses (Ratio)
system.cpu.dcache.WriteReq.avgMshrMissLatency::cpu.data 37997.078510                       # average WriteReq mshr miss latency ((Tick/Count))
system.cpu.dcache.WriteReq.avgMshrMissLatency::total 37997.078510                       # average WriteReq mshr miss latency ((Tick/Count))
system.cpu.dcache.power_state.pwrStateResidencyTicks::UNDEFINED  11217475500                       # Cumulative time (in ticks) in various power states (Tick)
system.cpu.dcache.tags.tagsInUse          1022.629402                       # Average ticks per tags in use ((Tick/Count))
system.cpu.dcache.tags.totalRefs             12486770                       # Total number of references to valid blocks. (Count)
system.cpu.dcache.tags.sampledRefs              20841                       # Sample count of references to valid blocks. (Count)
system.cpu.dcache.tags.avgRefs             599.144475                       # Average number of references to valid blocks. ((Count/Count))
system.cpu.dcache.tags.warmupTick              145000                       # The tick when the warmup percentage was hit. (Tick)
system.cpu.dcache.tags.occupancies::cpu.data  1022.629402                       # Average occupied blocks per tick, per requestor ((Count/Tick))
system.cpu.dcache.tags.avgOccs::cpu.data     0.998662                       # Average percentage of cache occupancy ((Ratio/Tick))
system.cpu.dcache.tags.avgOccs::total        0.998662                       # Average percentage of cache occupancy ((Ratio/Tick))
system.cpu.dcache.tags.occupanciesTaskId::1024         1024                       # Occupied blocks per task id (Count)
system.cpu.dcache.tags.ageTaskId_1024::0          105                       # Occupied blocks per task id, per block age (Count)
system.cpu.dcache.tags.ageTaskId_1024::1          856                       # Occupied blocks per task id, per block age (Count)
system.cpu.dcache.tags.ageTaskId_1024::2           63                       # Occupied blocks per task id, per block age (Count)
system.cpu.dcache.tags.ratioOccsTaskId::1024            1                       # Ratio of occupied blocks and all blocks, per task id (Ratio)
system.cpu.dcache.tags.tagAccesses           25034595                       # Number of tag accesses (Count)
system.cpu.dcache.tags.dataAccesses          25034595                       # Number of data accesses (Count)
system.cpu.dcache.tags.power_state.pwrStateResidencyTicks::UNDEFINED  11217475500                       # Cumulative time (in ticks) in various power states (Tick)
system.cpu.decode.idleCycles                  5875161                       # Number of cycles decode is idle (Cycle)
system.cpu.decode.blockedCycles               7359996                       # Number of cycles decode is blocked (Cycle)
system.cpu.decode.runCycles                   7073850                       # Number of cycles decode is running (Cycle)
system.cpu.decode.unblockCycles               1624201                       # Number of cycles decode is unblocking (Cycle)
system.cpu.decode.squashCycles                 122297                       # Number of cycles decode is squashing (Cycle)
system.cpu.decode.branchResolved              4075256                       # Number of times decode resolved a branch (Count)
system.cpu.decode.branchMispred                 25009                       # Number of times decode detected a branch misprediction (Count)
system.cpu.decode.decodedInsts               51026144                       # Number of instructions handled by decode (Count)
system.cpu.decode.squashedInsts                140826                       # Number of squashed instructions handled by decode (Count)
system.cpu.fetch.icacheStallCycles            7558183                       # Number of cycles fetch is stalled on an Icache miss (Cycle)
system.cpu.fetch.insts                       47404120                       # Number of instructions fetch has processed (Count)
system.cpu.fetch.branches                     7464569                       # Number of branches that fetch encountered (Count)
system.cpu.fetch.predictedBranches            4774765                       # Number of branches that fetch has predicted taken (Count)
system.cpu.fetch.cycles                      14349887                       # Number of cycles fetch has run and was not squashing or blocked (Cycle)
system.cpu.fetch.squashCycles                  294594                       # Number of cycles fetch has spent squashing (Cycle)
system.cpu.fetch.miscStallCycles                   62                       # Number of cycles fetch has spent waiting on interrupts, or bad addresses, or out of MSHRs (Cycle)
system.cpu.fetch.icacheWaitRetryStallCycles           76                       # Number of stall cycles due to full MSHR (Cycle)
system.cpu.fetch.cacheLines                   6848615                       # Number of cache lines fetched (Count)
system.cpu.fetch.icacheSquashes                 48175                       # Number of outstanding Icache misses that were squashed (Count)
system.cpu.fetch.nisnDist::samples           22055505                       # Number of instructions fetched each cycle (Total) (Count)
system.cpu.fetch.nisnDist::mean              2.371711                       # Number of instructions fetched each cycle (Total) (Count)
system.cpu.fetch.nisnDist::stdev             3.017612                       # Number of instructions fetched each cycle (Total) (Count)
system.cpu.fetch.nisnDist::underflows               0      0.00%      0.00% # Number of instructions fetched each cycle (Total) (Count)
system.cpu.fetch.nisnDist::0                 11773003     53.38%     53.38% # Number of instructions fetched each cycle (Total) (Count)
system.cpu.fetch.nisnDist::1                   665598      3.02%     56.40% # Number of instructions fetched each cycle (Total) (Count)
system.cpu.fetch.nisnDist::2                  1287615      5.84%     62.23% # Number of instructions fetched each cycle (Total) (Count)
system.cpu.fetch.nisnDist::3                  1120847      5.08%     67.32% # Number of instructions fetched each cycle (Total) (Count)
system.cpu.fetch.nisnDist::4                  1430322      6.49%     73.80% # Number of instructions fetched each cycle (Total) (Count)
system.cpu.fetch.nisnDist::5                  1348293      6.11%     79.92% # Number of instructions fetched each cycle (Total) (Count)
system.cpu.fetch.nisnDist::6                   913181      4.14%     84.06% # Number of instructions fetched each cycle (Total) (Count)
system.cpu.fetch.nisnDist::7                   369097      1.67%     85.73% # Number of instructions fetched each cycle (Total) (Count)
system.cpu.fetch.nisnDist::8                  3147549     14.27%    100.00% # Number of instructions fetched each cycle (Total) (Count)
system.cpu.fetch.nisnDist::overflows                0      0.00%    100.00% # Number of instructions fetched each cycle (Total) (Count)
system.cpu.fetch.nisnDist::min_value                0                       # Number of instructions fetched each cycle (Total) (Count)
system.cpu.fetch.nisnDist::max_value                8                       # Number of instructions fetched each cycle (Total) (Count)
system.cpu.fetch.nisnDist::total             22055505                       # Number of instructions fetched each cycle (Total) (Count)
system.cpu.fetch.branchRate                  0.332721                       # Number of branch fetches per cycle (Ratio)
system.cpu.fetch.rate                        2.112958                       # Number of inst fetches per cycle ((Count/Cycle))
system.cpu.icache.demandHits::cpu.inst        6822513                       # number of demand (read+write) hits (Count)
system.cpu.icache.demandHits::total           6822513                       # number of demand (read+write) hits (Count)
system.cpu.icache.overallHits::cpu.inst       6822513                       # number of overall hits (Count)
system.cpu.icache.overallHits::total          6822513                       # number of overall hits (Count)
system.cpu.icache.demandMisses::cpu.inst        26101                       # number of demand (read+write) misses (Count)
system.cpu.icache.demandMisses::total           26101                       # number of demand (read+write) misses (Count)
system.cpu.icache.overallMisses::cpu.inst        26101                       # number of overall misses (Count)
system.cpu.icache.overallMisses::total          26101                       # number of overall misses (Count)
system.cpu.icache.demandMissLatency::cpu.inst    640002998                       # number of demand (read+write) miss ticks (Tick)
system.cpu.icache.demandMissLatency::total    640002998                       # number of demand (read+write) miss ticks (Tick)
system.cpu.icache.overallMissLatency::cpu.inst    640002998                       # number of overall miss ticks (Tick)
system.cpu.icache.overallMissLatency::total    640002998                       # number of overall miss ticks (Tick)
system.cpu.icache.demandAccesses::cpu.inst      6848614                       # number of demand (read+write) accesses (Count)
system.cpu.icache.demandAccesses::total       6848614                       # number of demand (read+write) accesses (Count)
system.cpu.icache.overallAccesses::cpu.inst      6848614                       # number of overall (read+write) accesses (Count)
system.cpu.icache.overallAccesses::total      6848614                       # number of overall (read+write) accesses (Count)
system.cpu.icache.demandMissRate::cpu.inst     0.003811                       # miss rate for demand accesses (Ratio)
system.cpu.icache.demandMissRate::total      0.003811                       # miss rate for demand accesses (Ratio)
system.cpu.icache.overallMissRate::cpu.inst     0.003811                       # miss rate for overall accesses (Ratio)
system.cpu.icache.overallMissRate::total     0.003811                       # miss rate for overall accesses (Ratio)
system.cpu.icache.demandAvgMissLatency::cpu.inst 24520.248190                       # average overall miss latency ((Cycle/Count))
system.cpu.icache.demandAvgMissLatency::total 24520.248190                       # average overall miss latency ((Cycle/Count))
system.cpu.icache.overallAvgMissLatency::cpu.inst 24520.248190                       # average overall miss latency ((Cycle/Count))
system.cpu.icache.overallAvgMissLatency::total 24520.248190                       # average overall miss latency ((Cycle/Count))
system.cpu.icache.blockedCycles::no_mshrs          858                       # number of cycles access was blocked (Cycle)
system.cpu.icache.blockedCycles::no_targets            0                       # number of cycles access was blocked (Cycle)
system.cpu.icache.blockedCauses::no_mshrs           13                       # number of times access was blocked (Count)
system.cpu.icache.blockedCauses::no_targets            0                       # number of times access was blocked (Count)
system.cpu.icache.avgBlocked::no_mshrs             66                       # average number of cycles each access was blocked ((Cycle/Count))
system.cpu.icache.avgBlocked::no_targets          nan                       # average number of cycles each access was blocked ((Cycle/Count))
system.cpu.icache.writebacks::writebacks        25063                       # number of writebacks (Count)
system.cpu.icache.writebacks::total             25063                       # number of writebacks (Count)
system.cpu.icache.demandMshrHits::cpu.inst          560                       # number of demand (read+write) MSHR hits (Count)
system.cpu.icache.demandMshrHits::total           560                       # number of demand (read+write) MSHR hits (Count)
system.cpu.icache.overallMshrHits::cpu.inst          560                       # number of overall MSHR hits (Count)
system.cpu.icache.overallMshrHits::total          560                       # number of overall MSHR hits (Count)
system.cpu.icache.demandMshrMisses::cpu.inst        25541                       # number of demand (read+write) MSHR misses (Count)
system.cpu.icache.demandMshrMisses::total        25541                       # number of demand (read+write) MSHR misses (Count)
system.cpu.icache.overallMshrMisses::cpu.inst        25541                       # number of overall MSHR misses (Count)
system.cpu.icache.overallMshrMisses::total        25541                       # number of overall MSHR misses (Count)
system.cpu.icache.demandMshrMissLatency::cpu.inst    598317998                       # number of demand (read+write) MSHR miss ticks (Tick)
system.cpu.icache.demandMshrMissLatency::total    598317998                       # number of demand (read+write) MSHR miss ticks (Tick)
system.cpu.icache.overallMshrMissLatency::cpu.inst    598317998                       # number of overall MSHR miss ticks (Tick)
system.cpu.icache.overallMshrMissLatency::total    598317998                       # number of overall MSHR miss ticks (Tick)
system.cpu.icache.demandMshrMissRate::cpu.inst     0.003729                       # mshr miss ratio for demand accesses (Ratio)
system.cpu.icache.demandMshrMissRate::total     0.003729                       # mshr miss ratio for demand accesses (Ratio)
system.cpu.icache.overallMshrMissRate::cpu.inst     0.003729                       # mshr miss ratio for overall accesses (Ratio)
system.cpu.icache.overallMshrMissRate::total     0.003729                       # mshr miss ratio for overall accesses (Ratio)
system.cpu.icache.demandAvgMshrMissLatency::cpu.inst 23425.785913                       # average overall mshr miss latency ((Cycle/Count))
system.cpu.icache.demandAvgMshrMissLatency::total 23425.785913                       # average overall mshr miss latency ((Cycle/Count))
system.cpu.icache.overallAvgMshrMissLatency::cpu.inst 23425.785913                       # average overall mshr miss latency ((Cycle/Count))
system.cpu.icache.overallAvgMshrMissLatency::total 23425.785913                       # average overall mshr miss latency ((Cycle/Count))
system.cpu.icache.replacements                  25063                       # number of replacements (Count)
system.cpu.icache.ReadReq.hits::cpu.inst      6822513                       # number of ReadReq hits (Count)
system.cpu.icache.ReadReq.hits::total         6822513                       # number of ReadReq hits (Count)
system.cpu.icache.ReadReq.misses::cpu.inst        26101                       # number of ReadReq misses (Count)
system.cpu.icache.ReadReq.misses::total         26101                       # number of ReadReq misses (Count)
system.cpu.icache.ReadReq.missLatency::cpu.inst    640002998                       # number of ReadReq miss ticks (Tick)
system.cpu.icache.ReadReq.missLatency::total    640002998                       # number of ReadReq miss ticks (Tick)
system.cpu.icache.ReadReq.accesses::cpu.inst      6848614                       # number of ReadReq accesses(hits+misses) (Count)
system.cpu.icache.ReadReq.accesses::total      6848614                       # number of ReadReq accesses(hits+misses) (Count)
system.cpu.icache.ReadReq.missRate::cpu.inst     0.003811                       # miss rate for ReadReq accesses (Ratio)
system.cpu.icache.ReadReq.missRate::total     0.003811                       # miss rate for ReadReq accesses (Ratio)
system.cpu.icache.ReadReq.avgMissLatency::cpu.inst 24520.248190                       # average ReadReq miss latency ((Tick/Count))
system.cpu.icache.ReadReq.avgMissLatency::total 24520.248190                       # average ReadReq miss latency ((Tick/Count))
system.cpu.icache.ReadReq.mshrHits::cpu.inst          560                       # number of ReadReq MSHR hits (Count)
system.cpu.icache.ReadReq.mshrHits::total          560                       # number of ReadReq MSHR hits (Count)
system.cpu.icache.ReadReq.mshrMisses::cpu.inst        25541                       # number of ReadReq MSHR misses (Count)
system.cpu.icache.ReadReq.mshrMisses::total        25541                       # number of ReadReq MSHR misses (Count)
system.cpu.icache.ReadReq.mshrMissLatency::cpu.inst    598317998                       # number of ReadReq MSHR miss ticks (Tick)
system.cpu.icache.ReadReq.mshrMissLatency::total    598317998                       # number of ReadReq MSHR miss ticks (Tick)
system.cpu.icache.ReadReq.mshrMissRate::cpu.inst     0.003729                       # mshr miss rate for ReadReq accesses (Ratio)
system.cpu.icache.ReadReq.mshrMissRate::total     0.003729                       # mshr miss rate for ReadReq accesses (Ratio)
system.cpu.icache.ReadReq.avgMshrMissLatency::cpu.inst 23425.785913                       # average ReadReq mshr miss latency ((Tick/Count))
system.cpu.icache.ReadReq.avgMshrMissLatency::total 23425.785913                       # average ReadReq mshr miss latency ((Tick/Count))
system.cpu.icache.power_state.pwrStateResidencyTicks::UNDEFINED  11217475500                       # Cumulative time (in ticks) in various power states (Tick)
system.cpu.icache.tags.tagsInUse           408.629101                       # Average ticks per tags in use ((Tick/Count))
system.cpu.icache.tags.totalRefs              6848053                       # Total number of references to valid blocks. (Count)
system.cpu.icache.tags.sampledRefs              25540                       # Sample count of references to valid blocks. (Count)
system.cpu.icache.tags.avgRefs             268.130501                       # Average number of references to valid blocks. ((Count/Count))
system.cpu.icache.tags.warmupTick               77000                       # The tick when the warmup percentage was hit. (Tick)
system.cpu.icache.tags.occupancies::cpu.inst   408.629101                       # Average occupied blocks per tick, per requestor ((Count/Tick))
system.cpu.icache.tags.avgOccs::cpu.inst     0.798104                       # Average percentage of cache occupancy ((Ratio/Tick))
system.cpu.icache.tags.avgOccs::total        0.798104                       # Average percentage of cache occupancy ((Ratio/Tick))
system.cpu.icache.tags.occupanciesTaskId::1024          477                       # Occupied blocks per task id (Count)
system.cpu.icache.tags.ageTaskId_1024::0          127                       # Occupied blocks per task id, per block age (Count)
system.cpu.icache.tags.ageTaskId_1024::1           24                       # Occupied blocks per task id, per block age (Count)
system.cpu.icache.tags.ageTaskId_1024::3          182                       # Occupied blocks per task id, per block age (Count)
system.cpu.icache.tags.ageTaskId_1024::4          144                       # Occupied blocks per task id, per block age (Count)
system.cpu.icache.tags.ratioOccsTaskId::1024     0.931641                       # Ratio of occupied blocks and all blocks, per task id (Ratio)
system.cpu.icache.tags.tagAccesses           13722768                       # Number of tag accesses (Count)
system.cpu.icache.tags.dataAccesses          13722768                       # Number of data accesses (Count)
system.cpu.icache.tags.power_state.pwrStateResidencyTicks::UNDEFINED  11217475500                       # Cumulative time (in ticks) in various power states (Tick)
system.cpu.iew.idleCycles                           0                       # Number of cycles IEW is idle (Cycle)
system.cpu.iew.squashCycles                    122297                       # Number of cycles IEW is squashing (Cycle)
system.cpu.iew.blockCycles                     717806                       # Number of cycles IEW is blocking (Cycle)
system.cpu.iew.unblockCycles                   244424                       # Number of cycles IEW is unblocking (Cycle)
system.cpu.iew.dispatchedInsts               50053954                       # Number of instructions dispatched to IQ (Count)
system.cpu.iew.dispSquashedInsts                16664                       # Number of squashed instructions skipped by dispatch (Count)
system.cpu.iew.dispLoadInsts                  9853343                       # Number of dispatched load instructions (Count)
system.cpu.iew.dispStoreInsts                 5739408                       # Number of dispatched store instructions (Count)
system.cpu.iew.dispNonSpecInsts                  4202                       # Number of dispatched non-speculative instructions (Count)
system.cpu.iew.iqFullEvents                     70619                       # Number of times the IQ has become full, causing a stall (Count)
system.cpu.iew.lsqFullEvents                   163482                       # Number of times the LSQ has become full, causing a stall (Count)
system.cpu.iew.memOrderViolationEvents            912                       # Number of memory order violations (Count)
system.cpu.iew.predictedTakenIncorrect          42507                       # Number of branches that were predicted taken incorrectly (Count)
system.cpu.iew.predictedNotTakenIncorrect        77205                       # Number of branches that were predicted not taken incorrectly (Count)
system.cpu.iew.branchMispredicts               119712                       # Number of branch mispredicts detected at execute (Count)
system.cpu.iew.instsToCommit                 48708258                       # Cumulative count of insts sent to commit (Count)
system.cpu.iew.writebackCount                48677926                       # Cumulative count of insts written-back (Count)
[...]
system.mem_ctrls.dram.bwRead::cpu.inst      145715495                       # Total read bandwidth from this memory ((Byte/Second))
system.mem_ctrls.dram.bwRead::cpu.data      110108197                       # Total read bandwidth from this memory ((Byte/Second))
system.mem_ctrls.dram.bwRead::total         255823692                       # Total read bandwidth from this memory ((Byte/Second))
system.mem_ctrls.dram.bwInstRead::cpu.inst    145715495                       # Instruction read bandwidth from this memory ((Byte/Second))
system.mem_ctrls.dram.bwInstRead::total     145715495                       # Instruction read bandwidth from this memory ((Byte/Second))
system.mem_ctrls.dram.bwWrite::writebacks     61013372                       # Write bandwidth from this memory ((Byte/Second))
system.mem_ctrls.dram.bwWrite::total         61013372                       # Write bandwidth from this memory ((Byte/Second))
system.mem_ctrls.dram.bwTotal::writebacks     61013372                       # Total bandwidth to/from this memory ((Byte/Second))
system.mem_ctrls.dram.bwTotal::cpu.inst     145715495                       # Total bandwidth to/from this memory ((Byte/Second))
system.mem_ctrls.dram.bwTotal::cpu.data     110108197                       # Total bandwidth to/from this memory ((Byte/Second))
system.mem_ctrls.dram.bwTotal::total        316837064                       # Total bandwidth to/from this memory ((Byte/Second))
system.mem_ctrls.dram.readBursts                15393                       # Number of DRAM read bursts (Count)
system.mem_ctrls.dram.writeBursts                8338                       # Number of DRAM write bursts (Count)
system.mem_ctrls.dram.perBankRdBursts::0          842                       # Per bank write bursts (Count)
system.mem_ctrls.dram.perBankRdBursts::1          873                       # Per bank write bursts (Count)
system.mem_ctrls.dram.perBankRdBursts::2          685                       # Per bank write bursts (Count)
system.mem_ctrls.dram.perBankRdBursts::3          400                       # Per bank write bursts (Count)
system.mem_ctrls.dram.perBankRdBursts::4          583                       # Per bank write bursts (Count)
system.mem_ctrls.dram.perBankRdBursts::5         1457                       # Per bank write bursts (Count)
system.mem_ctrls.dram.perBankRdBursts::6         1333                       # Per bank write bursts (Count)
system.mem_ctrls.dram.perBankRdBursts::7         1339                       # Per bank write bursts (Count)
system.mem_ctrls.dram.perBankRdBursts::8         1186                       # Per bank write bursts (Count)
system.mem_ctrls.dram.perBankRdBursts::9         1704                       # Per bank write bursts (Count)
system.mem_ctrls.dram.perBankRdBursts::10         1253                       # Per bank write bursts (Count)
system.mem_ctrls.dram.perBankRdBursts::11          766                       # Per bank write bursts (Count)
system.mem_ctrls.dram.perBankRdBursts::12          595                       # Per bank write bursts (Count)
system.mem_ctrls.dram.perBankRdBursts::13          696                       # Per bank write bursts (Count)
system.mem_ctrls.dram.perBankRdBursts::14          791                       # Per bank write bursts (Count)
system.mem_ctrls.dram.perBankRdBursts::15          890                       # Per bank write bursts (Count)
system.mem_ctrls.dram.perBankWrBursts::0          490                       # Per bank write bursts (Count)
system.mem_ctrls.dram.perBankWrBursts::1          511                       # Per bank write bursts (Count)
system.mem_ctrls.dram.perBankWrBursts::2          440                       # Per bank write bursts (Count)
system.mem_ctrls.dram.perBankWrBursts::3          227                       # Per bank write bursts (Count)
system.mem_ctrls.dram.perBankWrBursts::4          435                       # Per bank write bursts (Count)
system.mem_ctrls.dram.perBankWrBursts::5          579                       # Per bank write bursts (Count)
system.mem_ctrls.dram.perBankWrBursts::6          536                       # Per bank write bursts (Count)
system.mem_ctrls.dram.perBankWrBursts::7          516                       # Per bank write bursts (Count)
system.mem_ctrls.dram.perBankWrBursts::8          527                       # Per bank write bursts (Count)
system.mem_ctrls.dram.perBankWrBursts::9          534                       # Per bank write bursts (Count)
system.mem_ctrls.dram.perBankWrBursts::10          497                       # Per bank write bursts (Count)
system.mem_ctrls.dram.perBankWrBursts::11          563                       # Per bank write bursts (Count)
system.mem_ctrls.dram.perBankWrBursts::12          517                       # Per bank write bursts (Count)
system.mem_ctrls.dram.perBankWrBursts::13          621                       # Per bank write bursts (Count)
system.mem_ctrls.dram.perBankWrBursts::14          650                       # Per bank write bursts (Count)
system.mem_ctrls.dram.perBankWrBursts::15          695                       # Per bank write bursts (Count)
system.mem_ctrls.dram.totQLat               138690500                       # Total ticks spent queuing (Tick)
system.mem_ctrls.dram.totBusLat              76965000                       # Total ticks spent in databus transfers (Tick)
system.mem_ctrls.dram.totMemAccLat          427309250                       # Total ticks spent from burst creation until serviced by the DRAM (Tick)
system.mem_ctrls.dram.avgQLat                 9009.97                       # Average queueing delay per DRAM burst ((Tick/Count))
system.mem_ctrls.dram.avgBusLat               5000.00                       # Average bus latency per DRAM burst ((Tick/Count))
system.mem_ctrls.dram.avgMemAccLat           27759.97                       # Average memory access latency per DRAM burst ((Tick/Count))
system.mem_ctrls.dram.readRowHits               12250                       # Number of row buffer hits during reads (Count)
system.mem_ctrls.dram.writeRowHits               7356                       # Number of row buffer hits during writes (Count)
system.mem_ctrls.dram.readRowHitRate            79.58                       # Row buffer hit rate for reads (Ratio)
system.mem_ctrls.dram.writeRowHitRate           88.22                       # Row buffer hit rate for writes (Ratio)
system.mem_ctrls.dram.bytesPerActivate::samples         4111                       # Bytes accessed per row activation (Byte)
system.mem_ctrls.dram.bytesPerActivate::mean   368.338604                       # Bytes accessed per row activation (Byte)
system.mem_ctrls.dram.bytesPerActivate::gmean   226.177766                       # Bytes accessed per row activation (Byte)
system.mem_ctrls.dram.bytesPerActivate::stdev   341.804768                       # Bytes accessed per row activation (Byte)
system.mem_ctrls.dram.bytesPerActivate::0-127         1182     28.75%     28.75% # Bytes accessed per row activation (Byte)
system.mem_ctrls.dram.bytesPerActivate::128-255          992     24.13%     52.88% # Bytes accessed per row activation (Byte)
system.mem_ctrls.dram.bytesPerActivate::256-383          374      9.10%     61.98% # Bytes accessed per row activation (Byte)
system.mem_ctrls.dram.bytesPerActivate::384-511          158      3.84%     65.82% # Bytes accessed per row activation (Byte)
system.mem_ctrls.dram.bytesPerActivate::512-639          505     12.28%     78.11% # Bytes accessed per row activation (Byte)
system.mem_ctrls.dram.bytesPerActivate::640-767          119      2.89%     81.00% # Bytes accessed per row activation (Byte)
system.mem_ctrls.dram.bytesPerActivate::768-895          129      3.14%     84.14% # Bytes accessed per row activation (Byte)
system.mem_ctrls.dram.bytesPerActivate::896-1023           77      1.87%     86.01% # Bytes accessed per row activation (Byte)
system.mem_ctrls.dram.bytesPerActivate::1024-1151          575     13.99%    100.00% # Bytes accessed per row activation (Byte)
system.mem_ctrls.dram.bytesPerActivate::total         4111                       # Bytes accessed per row activation (Byte)
system.mem_ctrls.dram.bytesRead                985152                       # Total bytes read (Byte)
system.mem_ctrls.dram.bytesWritten             533632                       # Total bytes written (Byte)
system.mem_ctrls.dram.avgRdBW               87.822969                       # Average DRAM read bandwidth in MiBytes/s ((Byte/Second))
system.mem_ctrls.dram.avgWrBW               47.571488                       # Average DRAM write bandwidth in MiBytes/s ((Byte/Second))
system.mem_ctrls.dram.peakBW                 12800.00                       # Theoretical peak bandwidth in MiByte/s ((Byte/Second))
system.mem_ctrls.dram.busUtil                    1.06                       # Data bus utilization in percentage (Ratio)
system.mem_ctrls.dram.busUtilRead                0.69                       # Data bus utilization in percentage for reads (Ratio)
system.mem_ctrls.dram.busUtilWrite               0.37                       # Data bus utilization in percentage for writes (Ratio)
system.mem_ctrls.dram.pageHitRate               82.62                       # Row buffer hit rate, read and write combined (Ratio)
system.mem_ctrls.dram.power_state.pwrStateResidencyTicks::UNDEFINED  11217475500                       # Cumulative time (in ticks) in various power states (Tick)
system.mem_ctrls.dram.rank0.actEnergy        13137600                       # Energy for activate commands per rank (pJ) (Joule)
system.mem_ctrls.dram.rank0.preEnergy         6960030                       # Energy for precharge commands per rank (pJ) (Joule)
system.mem_ctrls.dram.rank0.readEnergy       53635680                       # Energy for read commands per rank (pJ) (Joule)
system.mem_ctrls.dram.rank0.writeEnergy      19491480                       # Energy for write commands per rank (pJ) (Joule)
system.mem_ctrls.dram.rank0.refreshEnergy 885081600.000000                       # Energy for refresh commands per rank (pJ) (Joule)
system.mem_ctrls.dram.rank0.actBackEnergy   2215438950                       # Energy for active background per rank (pJ) (Joule)
system.mem_ctrls.dram.rank0.preBackEnergy   2441878080                       # Energy for precharge background per rank (pJ) (Joule)
system.mem_ctrls.dram.rank0.actPowerDownEnergy            0                       # Energy for active power-down per rank (pJ) (Joule)
system.mem_ctrls.dram.rank0.prePowerDownEnergy            0                       # Energy for precharge power-down per rank (pJ) (Joule)
system.mem_ctrls.dram.rank0.selfRefreshEnergy            0                       # Energy for self refresh per rank (pJ) (Joule)
system.mem_ctrls.dram.rank0.totalEnergy    5635623420                       # Total energy per rank (pJ) (Joule)
system.mem_ctrls.dram.rank0.averagePower   502.396767                       # Core power per rank (mW) (Watt)
system.mem_ctrls.dram.rank0.totalIdleTime            0                       # Total Idle time Per DRAM Rank (Tick)
system.mem_ctrls.dram.rank0.pwrStateTime::IDLE   6326856250                       # Time in different power states (Tick)
system.mem_ctrls.dram.rank0.pwrStateTime::REF    374400000                       # Time in different power states (Tick)
system.mem_ctrls.dram.rank0.pwrStateTime::SREF            0                       # Time in different power states (Tick)
system.mem_ctrls.dram.rank0.pwrStateTime::PRE_PDN            0                       # Time in different power states (Tick)
system.mem_ctrls.dram.rank0.pwrStateTime::ACT   4516219250                       # Time in different power states (Tick)
system.mem_ctrls.dram.rank0.pwrStateTime::ACT_PDN            0                       # Time in different power states (Tick)
system.mem_ctrls.dram.rank1.actEnergy        16314900                       # Energy for activate commands per rank (pJ) (Joule)
system.mem_ctrls.dram.rank1.preEnergy         8641215                       # Energy for precharge commands per rank (pJ) (Joule)
system.mem_ctrls.dram.rank1.readEnergy       56270340                       # Energy for read commands per rank (pJ) (Joule)
system.mem_ctrls.dram.rank1.writeEnergy      24032880                       # Energy for write commands per rank (pJ) (Joule)
system.mem_ctrls.dram.rank1.refreshEnergy 885081600.000000                       # Energy for refresh commands per rank (pJ) (Joule)
system.mem_ctrls.dram.rank1.actBackEnergy   2930038260                       # Energy for active background per rank (pJ) (Joule)
system.mem_ctrls.dram.rank1.preBackEnergy   1840110240                       # Energy for precharge background per rank (pJ) (Joule)
system.mem_ctrls.dram.rank1.actPowerDownEnergy            0                       # Energy for active power-down per rank (pJ) (Joule)
system.mem_ctrls.dram.rank1.prePowerDownEnergy            0                       # Energy for precharge power-down per rank (pJ) (Joule)
system.mem_ctrls.dram.rank1.selfRefreshEnergy            0                       # Energy for self refresh per rank (pJ) (Joule)
system.mem_ctrls.dram.rank1.totalEnergy    5760489435                       # Total energy per rank (pJ) (Joule)
system.mem_ctrls.dram.rank1.averagePower   513.528149                       # Core power per rank (mW) (Watt)
system.mem_ctrls.dram.rank1.totalIdleTime            0                       # Total Idle time Per DRAM Rank (Tick)
system.mem_ctrls.dram.rank1.pwrStateTime::IDLE   4754093500                       # Time in different power states (Tick)
system.mem_ctrls.dram.rank1.pwrStateTime::REF    374400000                       # Time in different power states (Tick)
system.mem_ctrls.dram.rank1.pwrStateTime::SREF            0                       # Time in different power states (Tick)
system.mem_ctrls.dram.rank1.pwrStateTime::PRE_PDN            0                       # Time in different power states (Tick)
system.mem_ctrls.dram.rank1.pwrStateTime::ACT   6088982000                       # Time in different power states (Tick)
system.mem_ctrls.dram.rank1.pwrStateTime::ACT_PDN            0                       # Time in different power states (Tick)
system.mem_ctrls.power_state.pwrStateResidencyTicks::UNDEFINED  11217475500                       # Cumulative time (in ticks) in various power states (Tick)
system.membus.transDist::ReadResp               39363                       # Transaction distribution (Count)
system.membus.transDist::WritebackDirty         10694                       # Transaction distribution (Count)
system.membus.transDist::WritebackClean         25063                       # Transaction distribution (Count)
system.membus.transDist::CleanEvict              9123                       # Transaction distribution (Count)
system.membus.transDist::ReadExReq               5476                       # Transaction distribution (Count)
system.membus.transDist::ReadExResp              5476                       # Transaction distribution (Count)
system.membus.transDist::ReadCleanReq           25541                       # Transaction distribution (Count)
system.membus.transDist::ReadSharedReq          13823                       # Transaction distribution (Count)
system.membus.transDist::InvalidateReq           1542                       # Transaction distribution (Count)
system.membus.pktCount_system.cpu.icache.mem_side_port::system.mem_ctrls.port        76144                       # Packet count per connected requestor and responder (Count)
system.membus.pktCount_system.cpu.dcache.mem_side_port::system.mem_ctrls.port        59957                       # Packet count per connected requestor and responder (Count)
system.membus.pktCount::total                  136101                       # Packet count per connected requestor and responder (Count)
system.membus.pktSize_system.cpu.icache.mem_side_port::system.mem_ctrls.port      3238592                       # Cumulative packet size per connected requestor and responder (Byte)
system.membus.pktSize_system.cpu.dcache.mem_side_port::system.mem_ctrls.port      1919552                       # Cumulative packet size per connected requestor and responder (Byte)
system.membus.pktSize::total                  5158144                       # Cumulative packet size per connected requestor and responder (Byte)
system.membus.snoops                                0                       # Total snoops (Count)
system.membus.snoopTraffic                          0                       # Total snoop traffic (Byte)
system.membus.snoopFanout::samples              46382                       # Request fanout histogram (Count)
system.membus.snoopFanout::mean              0.000043                       # Request fanout histogram (Count)
system.membus.snoopFanout::stdev             0.006567                       # Request fanout histogram (Count)
system.membus.snoopFanout::underflows               0      0.00%      0.00% # Request fanout histogram (Count)
system.membus.snoopFanout::0                    46380    100.00%    100.00% # Request fanout histogram (Count)
system.membus.snoopFanout::1                        2      0.00%    100.00% # Request fanout histogram (Count)
system.membus.snoopFanout::2                        0      0.00%    100.00% # Request fanout histogram (Count)
system.membus.snoopFanout::overflows                0      0.00%    100.00% # Request fanout histogram (Count)
system.membus.snoopFanout::min_value                0                       # Request fanout histogram (Count)
system.membus.snoopFanout::max_value                1                       # Request fanout histogram (Count)
system.membus.snoopFanout::total                46382                       # Request fanout histogram (Count)
system.membus.power_state.pwrStateResidencyTicks::UNDEFINED  11217475500                       # Cumulative time (in ticks) in various power states (Tick)
system.membus.reqLayer0.occupancy           242145500                       # Layer occupancy (ticks) (Tick)
system.membus.reqLayer0.utilization               0.0                       # Layer utilization (Ratio)
system.membus.respLayer1.occupancy          128001250                       # Layer occupancy (ticks) (Tick)
system.membus.respLayer1.utilization              0.0                       # Layer utilization (Ratio)
system.membus.respLayer2.occupancy          100863500                       # Layer occupancy (ticks) (Tick)
system.membus.respLayer2.utilization              0.0                       # Layer utilization (Ratio)
system.membus.snoop_filter.totRequests          91262                       # Total number of requests made to the snoop filter. (Count)
system.membus.snoop_filter.hitSingleRequests        44881                       # Number of requests hitting in the snoop filter with a single holder of the requested data. (Count)
system.membus.snoop_filter.hitMultiRequests            1                       # Number of requests hitting in the snoop filter with multiple (>1) holders of the requested data. (Count)
system.membus.snoop_filter.totSnoops                0                       # Total number of snoops made to the snoop filter. (Count)
system.membus.snoop_filter.hitSingleSnoops            0                       # Number of snoops hitting in the snoop filter with a single holder of the requested data. (Count)
system.membus.snoop_filter.hitMultiSnoops            0                       # Number of snoops hitting in the snoop filter with multiple (>1) holders of the requested data. (Count)
system.voltage_domain.voltage                       1                       # Voltage in Volts (Volt)
system.workload.inst.arm                            0                       # number of arm instructions executed (Count)
system.workload.inst.quiesce                        0                       # number of quiesce instructions executed (Count)

---------- End Simulation Statistics   ----------
