
---------- Begin Simulation Statistics ----------
simSeconds                                   0.078187                       # Number of seconds simulated (Second)
simTicks                                  78186996500                       # Number of ticks simulated (Tick)
finalTick                                 78186996500                       # Number of ticks from beginning of simulation (restored from checkpoints and never reset) (Tick)
simFreq                                  1000000000000                       # The number of ticks per simulated second ((Tick/Second))
hostSeconds                                     76.96                       # Real time elapsed on the host (Second)
hostTickRate                               1015932914                       # The number of ticks simulated per host second (ticks/s) ((Tick/Second))
hostMemory                                     671436                       # Number of bytes of host memory used (Byte)
simInsts                                     42834982                       # Number of instructions simulated (Count)
simOps                                       47175355                       # Number of ops (including micro ops) simulated (Count)
hostInstRate                                   556581                       # Simulator instruction rate (inst/s) ((Count/Second))
hostOpRate                                     612979                       # Simulator op (including micro ops) rate (op/s) ((Count/Second))
system.clk_domain.clock                          1000                       # Clock period in ticks (Tick)
system.cpu.numCycles                        156373993                       # Number of cpu cycles simulated (Cycle)
system.cpu.numWorkItemsStarted                      0                       # Number of work items this cpu started (Count)
system.cpu.numWorkItemsCompleted                    0                       # Number of work items this cpu completed (Count)
system.cpu.numInsts                          42834982                       # Number of instructions committed (Count)
system.cpu.numOps                            47175355                       # Number of ops (including micro ops) committed (Count)
system.cpu.numDiscardedOps                     351574                       # Number of ops (including micro ops) which were discarded before commit (Count)
system.cpu.numFetchSuspends                         0                       # Number of times Execute suspended instruction fetching (Count)
system.cpu.cpi                               3.650614                       # CPI: cycles per instruction ((Cycle/Count))
system.cpu.ipc                               0.273927                       # IPC: instructions per cycle ((Count/Cycle))
system.cpu.committedInstType_0::No_OpClass        27678      0.06%      0.06% # Class of committed instruction (Count)
system.cpu.committedInstType_0::IntAlu       30616782     64.90%     64.96% # Class of committed instruction (Count)
system.cpu.committedInstType_0::IntMult        641224      1.36%     66.32% # Class of committed instruction (Count)
system.cpu.committedInstType_0::IntDiv         153813      0.33%     66.64% # Class of committed instruction (Count)
system.cpu.committedInstType_0::FloatAdd       278528      0.59%     67.23% # Class of committed instruction (Count)
system.cpu.committedInstType_0::FloatCmp        16384      0.03%     67.27% # Class of committed instruction (Count)
system.cpu.committedInstType_0::FloatCvt            0      0.00%     67.27% # Class of committed instruction (Count)
system.cpu.committedInstType_0::FloatMult       262144      0.56%     67.82% # Class of committed instruction (Count)
system.cpu.committedInstType_0::FloatMultAcc            0      0.00%     67.82% # Class of committed instruction (Count)
system.cpu.committedInstType_0::FloatDiv            0      0.00%     67.82% # Class of committed instruction (Count)
system.cpu.committedInstType_0::FloatMisc        49152      0.10%     67.93% # Class of committed instruction (Count)
system.cpu.committedInstType_0::FloatSqrt            0      0.00%     67.93% # Class of committed instruction (Count)
system.cpu.committedInstType_0::SimdAdd         62740      0.13%     68.06% # Class of committed instruction (Count)
system.cpu.committedInstType_0::SimdAddAcc            0      0.00%     68.06% # Class of committed instruction (Count)
system.cpu.committedInstType_0::SimdAlu        118041      0.25%     68.31% # Class of committed instruction (Count)
system.cpu.committedInstType_0::SimdCmp        110616      0.23%     68.55% # Class of committed instruction (Count)
system.cpu.committedInstType_0::SimdCvt             0      0.00%     68.55% # Class of committed instruction (Count)
system.cpu.committedInstType_0::SimdMisc        76054      0.16%     68.71% # Class of committed instruction (Count)
system.cpu.committedInstType_0::SimdMult            0      0.00%     68.71% # Class of committed instruction (Count)
system.cpu.committedInstType_0::SimdMultAcc            0      0.00%     68.71% # Class of committed instruction (Count)
system.cpu.committedInstType_0::SimdShift            0      0.00%     68.71% # Class of committed instruction (Count)
system.cpu.committedInstType_0::SimdShiftAcc            0      0.00%     68.71% # Class of committed instruction (Count)
system.cpu.committedInstType_0::SimdDiv             0      0.00%     68.71% # Class of committed instruction (Count)
system.cpu.committedInstType_0::SimdSqrt            0      0.00%     68.71% # Class of committed instruction (Count)
system.cpu.committedInstType_0::SimdFloatAdd            0      0.00%     68.71% # Class of committed instruction (Count)
system.cpu.committedInstType_0::SimdFloatAlu            0      0.00%     68.71% # Class of committed instruction (Count)
system.cpu.committedInstType_0::SimdFloatCmp            0      0.00%     68.71% # Class of committed instruction (Count)
system.cpu.committedInstType_0::SimdFloatCvt            0      0.00%     68.71% # Class of committed instruction (Count)
system.cpu.committedInstType_0::SimdFloatDiv            0      0.00%     68.71% # Class of committed instruction (Count)
system.cpu.committedInstType_0::SimdFloatMisc            0      0.00%     68.71% # Class of committed instruction (Count)
system.cpu.committedInstType_0::SimdFloatMult            0      0.00%     68.71% # Class of committed instruction (Count)
system.cpu.committedInstType_0::SimdFloatMultAcc            0      0.00%     68.71% # Class of committed instruction (Count)
system.cpu.committedInstType_0::SimdFloatSqrt            0      0.00%     68.71% # Class of committed instruction (Count)
system.cpu.committedInstType_0::SimdReduceAdd            0      0.00%     68.71% # Class of committed instruction (Count)
system.cpu.committedInstType_0::SimdReduceAlu            0      0.00%     68.71% # Class of committed instruction (Count)
system.cpu.committedInstType_0::SimdReduceCmp            0      0.00%     68.71% # Class of committed instruction (Count)
system.cpu.committedInstType_0::SimdFloatReduceAdd            0      0.00%     68.71% # Class of committed instruction (Count)
system.cpu.committedInstType_0::SimdFloatReduceCmp            0      0.00%     68.71% # Class of committed instruction (Count)
system.cpu.committedInstType_0::SimdAes             0      0.00%     68.71% # Class of committed instruction (Count)
system.cpu.committedInstType_0::SimdAesMix            0      0.00%     68.71% # Class of committed instruction (Count)
system.cpu.committedInstType_0::SimdSha1Hash            0      0.00%     68.71% # Class of committed instruction (Count)
system.cpu.committedInstType_0::SimdSha1Hash2            0      0.00%     68.71% # Class of committed instruction (Count)
system.cpu.committedInstType_0::SimdSha256Hash            0      0.00%     68.71% # Class of committed instruction (Count)
system.cpu.committedInstType_0::SimdSha256Hash2            0      0.00%     68.71% # Class of committed instruction (Count)
system.cpu.committedInstType_0::SimdShaSigma2            0      0.00%     68.71% # Class of committed instruction (Count)
system.cpu.committedInstType_0::SimdShaSigma3            0      0.00%     68.71% # Class of committed instruction (Count)
system.cpu.committedInstType_0::SimdPredAlu            0      0.00%     68.71% # Class of committed instruction (Count)
system.cpu.committedInstType_0::MemRead       9356228     19.83%     88.54% # Class of committed instruction (Count)
system.cpu.committedInstType_0::MemWrite      5405971     11.46%    100.00% # Class of committed instruction (Count)
system.cpu.committedInstType_0::FloatMemRead            0      0.00%    100.00% # Class of committed instruction (Count)
system.cpu.committedInstType_0::FloatMemWrite            0      0.00%    100.00% # Class of committed instruction (Count)
system.cpu.committedInstType_0::IprAccess            0      0.00%    100.00% # Class of committed instruction (Count)
system.cpu.committedInstType_0::InstPrefetch            0      0.00%    100.00% # Class of committed instruction (Count)
system.cpu.committedInstType_0::total        47175355                       # Class of committed instruction (Count)
system.cpu.branchPred.lookups                 6975399                       # Number of BP lookups (Count)
system.cpu.branchPred.condPredicted           5281711                       # Number of conditional branches predicted (Count)
system.cpu.branchPred.condIncorrect            132719                       # Number of conditional branches incorrect (Count)
system.cpu.branchPred.BTBLookups              3846606                       # Number of BTB lookups (Count)
system.cpu.branchPred.BTBHits                 3755888                       # Number of BTB hits (Count)
system.cpu.branchPred.BTBHitRatio            0.976416                       # BTB Hit Ratio (Ratio)
system.cpu.branchPred.RASUsed                  559128                       # Number of times the RAS was used to get a target. (Count)
system.cpu.branchPred.RASIncorrect                 18                       # Number of incorrect RAS predictions. (Count)
system.cpu.branchPred.indirectLookups           79691                       # Number of indirect predictor lookups. (Count)
system.cpu.branchPred.indirectHits              79138                       # Number of indirect target hits. (Count)
system.cpu.branchPred.indirectMisses              553                       # Number of indirect misses. (Count)
system.cpu.branchPred.indirectMispredicted         4208                       # Number of mispredicted indirect branches. (Count)
system.cpu.dcache.demandHits::cpu.data       13080724                       # number of demand (read+write) hits (Count)
system.cpu.dcache.demandHits::total          13080724                       # number of demand (read+write) hits (Count)
system.cpu.dcache.overallHits::cpu.data      13090024                       # number of overall hits (Count)
system.cpu.dcache.overallHits::total         13090024                       # number of overall hits (Count)
system.cpu.dcache.demandMisses::cpu.data      1360760                       # number of demand (read+write) misses (Count)
system.cpu.dcache.demandMisses::total         1360760                       # number of demand (read+write) misses (Count)
system.cpu.dcache.overallMisses::cpu.data      1381244                       # number of overall misses (Count)
system.cpu.dcache.overallMisses::total        1381244                       # number of overall misses (Count)
system.cpu.dcache.demandMissLatency::cpu.data  64395049500                       # number of demand (read+write) miss ticks (Tick)
system.cpu.dcache.demandMissLatency::total  64395049500                       # number of demand (read+write) miss ticks (Tick)
system.cpu.dcache.overallMissLatency::cpu.data  64395049500                       # number of overall miss ticks (Tick)
system.cpu.dcache.overallMissLatency::total  64395049500                       # number of overall miss ticks (Tick)
system.cpu.dcache.demandAccesses::cpu.data     14441484                       # number of demand (read+write) accesses (Count)
system.cpu.dcache.demandAccesses::total      14441484                       # number of demand (read+write) accesses (Count)
system.cpu.dcache.overallAccesses::cpu.data     14471268                       # number of overall (read+write) accesses (Count)
system.cpu.dcache.overallAccesses::total     14471268                       # number of overall (read+write) accesses (Count)
system.cpu.dcache.demandMissRate::cpu.data     0.094226                       # miss rate for demand accesses (Ratio)
system.cpu.dcache.demandMissRate::total      0.094226                       # miss rate for demand accesses (Ratio)
system.cpu.dcache.overallMissRate::cpu.data     0.095447                       # miss rate for overall accesses (Ratio)
system.cpu.dcache.overallMissRate::total     0.095447                       # miss rate for overall accesses (Ratio)
system.cpu.dcache.demandAvgMissLatency::cpu.data 47322.855978                       # average overall miss latency ((Cycle/Count))
system.cpu.dcache.demandAvgMissLatency::total 47322.855978                       # average overall miss latency ((Cycle/Count))
system.cpu.dcache.overallAvgMissLatency::cpu.data 46621.052834                       # average overall miss latency ((Cycle/Count))
system.cpu.dcache.overallAvgMissLatency::total 46621.052834                       # average overall miss latency ((Cycle/Count))
system.cpu.dcache.blockedCycles::no_mshrs            0                       # number of cycles access was blocked (Cycle)
system.cpu.dcache.blockedCycles::no_targets            0                       # number of cycles access was blocked (Cycle)
system.cpu.dcache.blockedCauses::no_mshrs            0                       # number of times access was blocked (Count)
system.cpu.dcache.blockedCauses::no_targets            0                       # number of times access was blocked (Count)
system.cpu.dcache.avgBlocked::no_mshrs            nan                       # average number of cycles each access was blocked ((Cycle/Count))
system.cpu.dcache.avgBlocked::no_targets          nan                       # average number of cycles each access was blocked ((Cycle/Count))
system.cpu.dcache.writebacks::writebacks       408310                       # number of writebacks (Count)
system.cpu.dcache.writebacks::total            408310                       # number of writebacks (Count)
system.cpu.dcache.demandMshrHits::cpu.data       243411                       # number of demand (read+write) MSHR hits (Count)
system.cpu.dcache.demandMshrHits::total        243411                       # number of demand (read+write) MSHR hits (Count)
system.cpu.dcache.overallMshrHits::cpu.data       243411                       # number of overall MSHR hits (Count)
system.cpu.dcache.overallMshrHits::total       243411                       # number of overall MSHR hits (Count)
system.cpu.dcache.demandMshrMisses::cpu.data      1117349                       # number of demand (read+write) MSHR misses (Count)
system.cpu.dcache.demandMshrMisses::total      1117349                       # number of demand (read+write) MSHR misses (Count)
system.cpu.dcache.overallMshrMisses::cpu.data      1137833                       # number of overall MSHR misses (Count)
system.cpu.dcache.overallMshrMisses::total      1137833                       # number of overall MSHR misses (Count)
system.cpu.dcache.demandMshrMissLatency::cpu.data  54038575000                       # number of demand (read+write) MSHR miss ticks (Tick)
system.cpu.dcache.demandMshrMissLatency::total  54038575000                       # number of demand (read+write) MSHR miss ticks (Tick)
system.cpu.dcache.overallMshrMissLatency::cpu.data  55125683500                       # number of overall MSHR miss ticks (Tick)
system.cpu.dcache.overallMshrMissLatency::total  55125683500                       # number of overall MSHR miss ticks (Tick)
system.cpu.dcache.demandMshrMissRate::cpu.data     0.077371                       # mshr miss ratio for demand accesses (Ratio)
system.cpu.dcache.demandMshrMissRate::total     0.077371                       # mshr miss ratio for demand accesses (Ratio)
system.cpu.dcache.overallMshrMissRate::cpu.data     0.078627                       # mshr miss ratio for overall accesses (Ratio)
system.cpu.dcache.overallMshrMissRate::total     0.078627                       # mshr miss ratio for overall accesses (Ratio)
system.cpu.dcache.demandAvgMshrMissLatency::cpu.data 48363.201650                       # average overall mshr miss latency ((Cycle/Count))
system.cpu.dcache.demandAvgMshrMissLatency::total 48363.201650                       # average overall mshr miss latency ((Cycle/Count))
system.cpu.dcache.overallAvgMshrMissLatency::cpu.data 48447.956335                       # average overall mshr miss latency ((Cycle/Count))
system.cpu.dcache.overallAvgMshrMissLatency::total 48447.956335                       # average overall mshr miss latency ((Cycle/Count))
system.cpu.dcache.replacements                1137821                       # number of replacements (Count)
system.cpu.dcache.LoadLockedReq.hits::cpu.data            2                       # number of LoadLockedReq hits (Count)
system.cpu.dcache.LoadLockedReq.hits::total            2                       # number of LoadLockedReq hits (Count)
system.cpu.dcache.LoadLockedReq.misses::cpu.data            2                       # number of LoadLockedReq misses (Count)
system.cpu.dcache.LoadLockedReq.misses::total            2                       # number of LoadLockedReq misses (Count)
system.cpu.dcache.LoadLockedReq.missLatency::cpu.data        73000                       # number of LoadLockedReq miss ticks (Tick)
system.cpu.dcache.LoadLockedReq.missLatency::total        73000                       # number of LoadLockedReq miss ticks (Tick)
system.cpu.dcache.LoadLockedReq.accesses::cpu.data            4                       # number of LoadLockedReq accesses(hits+misses) (Count)
system.cpu.dcache.LoadLockedReq.accesses::total            4                       # number of LoadLockedReq accesses(hits+misses) (Count)
system.cpu.dcache.LoadLockedReq.missRate::cpu.data     0.500000                       # miss rate for LoadLockedReq accesses (Ratio)
system.cpu.dcache.LoadLockedReq.missRate::total     0.500000                       # miss rate for LoadLockedReq accesses (Ratio)
system.cpu.dcache.LoadLockedReq.avgMissLatency::cpu.data        36500                       # average LoadLockedReq miss latency ((Tick/Count))
system.cpu.dcache.LoadLockedReq.avgMissLatency::total        36500                       # average LoadLockedReq miss latency ((Tick/Count))
system.cpu.dcache.LoadLockedReq.mshrMisses::cpu.data            2                       # number of LoadLockedReq MSHR misses (Count)
system.cpu.dcache.LoadLockedReq.mshrMisses::total            2                       # number of LoadLockedReq MSHR misses (Count)
system.cpu.dcache.LoadLockedReq.mshrMissLatency::cpu.data        71000                       # number of LoadLockedReq MSHR miss ticks (Tick)
system.cpu.dcache.LoadLockedReq.mshrMissLatency::total        71000                       # number of LoadLockedReq MSHR miss ticks (Tick)
system.cpu.dcache.LoadLockedReq.mshrMissRate::cpu.data     0.500000                       # mshr miss rate for LoadLockedReq accesses (Ratio)
system.cpu.dcache.LoadLockedReq.mshrMissRate::total     0.500000                       # mshr miss rate for LoadLockedReq accesses (Ratio)
system.cpu.dcache.LoadLockedReq.avgMshrMissLatency::cpu.data        35500                       # average LoadLockedReq mshr miss latency ((Tick/Count))
system.cpu.dcache.LoadLockedReq.avgMshrMissLatency::total        35500                       # average LoadLockedReq mshr miss latency ((Tick/Count))
system.cpu.dcache.ReadReq.hits::cpu.data      8184939                       # number of ReadReq hits (Count)
system.cpu.dcache.ReadReq.hits::total         8184939                       # number of ReadReq hits (Count)
system.cpu.dcache.ReadReq.misses::cpu.data       850636                       # number of ReadReq misses (Count)
system.cpu.dcache.ReadReq.misses::total        850636                       # number of ReadReq misses (Count)
system.cpu.dcache.ReadReq.missLatency::cpu.data  45746504000                       # number of ReadReq miss ticks (Tick)
system.cpu.dcache.ReadReq.missLatency::total  45746504000                       # number of ReadReq miss ticks (Tick)
system.cpu.dcache.ReadReq.accesses::cpu.data      9035575                       # number of ReadReq accesses(hits+misses) (Count)
system.cpu.dcache.ReadReq.accesses::total      9035575                       # number of ReadReq accesses(hits+misses) (Count)
system.cpu.dcache.ReadReq.missRate::cpu.data     0.094143                       # miss rate for ReadReq accesses (Ratio)
system.cpu.dcache.ReadReq.missRate::total     0.094143                       # miss rate for ReadReq accesses (Ratio)
system.cpu.dcache.ReadReq.avgMissLatency::cpu.data 53779.176992                       # average ReadReq miss latency ((Tick/Count))
system.cpu.dcache.ReadReq.avgMissLatency::total 53779.176992                       # average ReadReq miss latency ((Tick/Count))
system.cpu.dcache.ReadReq.mshrHits::cpu.data        58004                       # number of ReadReq MSHR hits (Count)
system.cpu.dcache.ReadReq.mshrHits::total        58004                       # number of ReadReq MSHR hits (Count)
system.cpu.dcache.ReadReq.mshrMisses::cpu.data       792632                       # number of ReadReq MSHR misses (Count)
system.cpu.dcache.ReadReq.mshrMisses::total       792632                       # number of ReadReq MSHR misses (Count)
system.cpu.dcache.ReadReq.mshrMissLatency::cpu.data  42297301500                       # number of ReadReq MSHR miss ticks (Tick)
system.cpu.dcache.ReadReq.mshrMissLatency::total  42297301500                       # number of ReadReq MSHR miss ticks (Tick)
system.cpu.dcache.ReadReq.mshrMissRate::cpu.data     0.087723                       # mshr miss rate for ReadReq accesses (Ratio)
system.cpu.dcache.ReadReq.mshrMissRate::total     0.087723                       # mshr miss rate for ReadReq accesses (Ratio)
system.cpu.dcache.ReadReq.avgMshrMissLatency::cpu.data 53363.101036                       # average ReadReq mshr miss latency ((Tick/Count))
system.cpu.dcache.ReadReq.avgMshrMissLatency::total 53363.101036                       # average ReadReq mshr miss latency ((Tick/Count))
system.cpu.dcache.SoftPFReq.hits::cpu.data         9300                       # number of SoftPFReq hits (Count)
system.cpu.dcache.SoftPFReq.hits::total          9300                       # number of SoftPFReq hits (Count)
system.cpu.dcache.SoftPFReq.misses::cpu.data        20484                       # number of SoftPFReq misses (Count)
system.cpu.dcache.SoftPFReq.misses::total        20484                       # number of SoftPFReq misses (Count)
system.cpu.dcache.SoftPFReq.accesses::cpu.data        29784                       # number of SoftPFReq accesses(hits+misses) (Count)
system.cpu.dcache.SoftPFReq.accesses::total        29784                       # number of SoftPFReq accesses(hits+misses) (Count)
system.cpu.dcache.SoftPFReq.missRate::cpu.data     0.687752                       # miss rate for SoftPFReq accesses (Ratio)
system.cpu.dcache.SoftPFReq.missRate::total     0.687752                       # miss rate for SoftPFReq accesses (Ratio)
system.cpu.dcache.SoftPFReq.mshrMisses::cpu.data        20484                       # number of SoftPFReq MSHR misses (Count)
system.cpu.dcache.SoftPFReq.mshrMisses::total        20484                       # number of SoftPFReq MSHR misses (Count)
system.cpu.dcache.SoftPFReq.mshrMissLatency::cpu.data   1087108500                       # number of SoftPFReq MSHR miss ticks (Tick)
system.cpu.dcache.SoftPFReq.mshrMissLatency::total   1087108500                       # number of SoftPFReq MSHR miss ticks (Tick)
system.cpu.dcache.SoftPFReq.mshrMissRate::cpu.data     0.687752                       # mshr miss rate for SoftPFReq accesses (Ratio)
system.cpu.dcache.SoftPFReq.mshrMissRate::total     0.687752                       # mshr miss rate for SoftPFReq accesses (Ratio)
system.cpu.dcache.SoftPFReq.avgMshrMissLatency::cpu.data 53071.104277                       # average SoftPFReq mshr miss latency ((Tick/Count))
system.cpu.dcache.SoftPFReq.avgMshrMissLatency::total 53071.104277                       # average SoftPFReq mshr miss latency ((Tick/Count))
system.cpu.dcache.StoreCondReq.hits::cpu.data            4                       # number of StoreCondReq hits (Count)
system.cpu.dcache.StoreCondReq.hits::total            4                       # number of StoreCondReq hits (Count)
system.cpu.dcache.StoreCondReq.accesses::cpu.data            4                       # number of StoreCondReq accesses(hits+misses) (Count)
system.cpu.dcache.StoreCondReq.accesses::total            4                       # number of StoreCondReq accesses(hits+misses) (Count)
system.cpu.dcache.SwapReq.hits::cpu.data           18                       # number of SwapReq hits (Count)
system.cpu.dcache.SwapReq.hits::total              18                       # number of SwapReq hits (Count)
system.cpu.dcache.SwapReq.misses::cpu.data            2                       # number of SwapReq misses (Count)
system.cpu.dcache.SwapReq.misses::total             2                       # number of SwapReq misses (Count)
system.cpu.dcache.SwapReq.missLatency::cpu.data       107500                       # number of SwapReq miss ticks (Tick)
system.cpu.dcache.SwapReq.missLatency::total       107500                       # number of SwapReq miss ticks (Tick)
system.cpu.dcache.SwapReq.accesses::cpu.data           20                       # number of SwapReq accesses(hits+misses) (Count)
system.cpu.dcache.SwapReq.accesses::total           20                       # number of SwapReq accesses(hits+misses) (Count)
system.cpu.dcache.SwapReq.missRate::cpu.data     0.100000                       # miss rate for SwapReq accesses (Ratio)
system.cpu.dcache.SwapReq.missRate::total     0.100000                       # miss rate for SwapReq accesses (Ratio)
system.cpu.dcache.SwapReq.avgMissLatency::cpu.data        53750                       # average SwapReq miss latency ((Tick/Count))
system.cpu.dcache.SwapReq.avgMissLatency::total        53750                       # average SwapReq miss latency ((Tick/Count))
system.cpu.dcache.SwapReq.mshrMisses::cpu.data            2                       # number of SwapReq MSHR misses (Count)
system.cpu.dcache.SwapReq.mshrMisses::total            2                       # number of SwapReq MSHR misses (Count)
system.cpu.dcache.SwapReq.mshrMissLatency::cpu.data       105500                       # number of SwapReq MSHR miss ticks (Tick)
system.cpu.dcache.SwapReq.mshrMissLatency::total       105500                       # number of SwapReq MSHR miss ticks (Tick)
system.cpu.dcache.SwapReq.mshrMissRate::cpu.data     0.100000                       # mshr miss rate for SwapReq accesses (Ratio)
system.cpu.dcache.SwapReq.mshrMissRate::total     0.100000                       # mshr miss rate for SwapReq accesses (Ratio)
system.cpu.dcache.SwapReq.avgMshrMissLatency::cpu.data        52750                       # average SwapReq mshr miss latency ((Tick/Count))
system.cpu.dcache.SwapReq.avgMshrMissLatency::total        52750                       # average SwapReq mshr miss latency ((Tick/Count))
system.cpu.dcache.WriteLineReq.misses::cpu.data         1540                       # number of WriteLineReq misses (Count)
system.cpu.dcache.WriteLineReq.misses::total         1540                       # number of WriteLineReq misses (Count)
system.cpu.dcache.WriteLineReq.missLatency::cpu.data     19173000                       # number of WriteLineReq miss ticks (Tick)
system.cpu.dcache.WriteLineReq.missLatency::total     19173000                       # number of WriteLineReq miss ticks (Tick)
system.cpu.dcache.WriteLineReq.accesses::cpu.data         1540                       # number of WriteLineReq accesses(hits+misses) (Count)
system.cpu.dcache.WriteLineReq.accesses::total         1540                       # number of WriteLineReq accesses(hits+misses) (Count)
system.cpu.dcache.WriteLineReq.missRate::cpu.data            1                       # miss rate for WriteLineReq accesses (Ratio)
system.cpu.dcache.WriteLineReq.missRate::total            1                       # miss rate for WriteLineReq accesses (Ratio)
system.cpu.dcache.WriteLineReq.avgMissLatency::cpu.data        12450                       # average WriteLineReq miss latency ((Tick/Count))
system.cpu.dcache.WriteLineReq.avgMissLatency::total        12450                       # average WriteLineReq miss latency ((Tick/Count))
system.cpu.dcache.WriteLineReq.mshrMisses::cpu.data         1540                       # number of WriteLineReq MSHR misses (Count)
system.cpu.dcache.WriteLineReq.mshrMisses::total         1540                       # number of WriteLineReq MSHR misses (Count)
system.cpu.dcache.WriteLineReq.mshrMissLatency::cpu.data     17633000                       # number of WriteLineReq MSHR miss ticks (Tick)
system.cpu.dcache.WriteLineReq.mshrMissLatency::total     17633000                       # number of WriteLineReq MSHR miss ticks (Tick)
system.cpu.dcache.WriteLineReq.mshrMissRate::cpu.data            1                       # mshr miss rate for WriteLineReq accesses (Ratio)
system.cpu.dcache.WriteLineReq.mshrMissRate::total            1                       # mshr miss rate for WriteLineReq accesses (Ratio)
system.cpu.dcache.WriteLineReq.avgMshrMissLatency::cpu.data        11450                       # average WriteLineReq mshr miss latency ((Tick/Count))
system.cpu.dcache.WriteLineReq.avgMshrMissLatency::total        11450                       # average WriteLineReq mshr miss latency ((Tick/Count))
system.cpu.dcache.WriteReq.hits::cpu.data      4895785                       # number of WriteReq hits (Count)
system.cpu.dcache.WriteReq.hits::total        4895785                       # number of WriteReq hits (Count)
system.cpu.dcache.WriteReq.misses::cpu.data       508584                       # number of WriteReq misses (Count)
system.cpu.dcache.WriteReq.misses::total       508584                       # number of WriteReq misses (Count)
system.cpu.dcache.WriteReq.missLatency::cpu.data  18629372500                       # number of WriteReq miss ticks (Tick)
system.cpu.dcache.WriteReq.missLatency::total  18629372500                       # number of WriteReq miss ticks (Tick)
system.cpu.dcache.WriteReq.accesses::cpu.data      5404369                       # number of WriteReq accesses(hits+misses) (Count)
system.cpu.dcache.WriteReq.accesses::total      5404369                       # number of WriteReq accesses(hits+misses) (Count)
system.cpu.dcache.WriteReq.missRate::cpu.data     0.094106                       # miss rate for WriteReq accesses (Ratio)
system.cpu.dcache.WriteReq.missRate::total     0.094106                       # miss rate for WriteReq accesses (Ratio)
system.cpu.dcache.WriteReq.avgMissLatency::cpu.data 36629.883166                       # average WriteReq miss latency ((Tick/Count))
system.cpu.dcache.WriteReq.avgMissLatency::total 36629.883166                       # average WriteReq miss latency ((Tick/Count))
system.cpu.dcache.WriteReq.mshrHits::cpu.data       185407                       # number of WriteReq MSHR hits (Count)
system.cpu.dcache.WriteReq.mshrHits::total       185407                       # number of WriteReq MSHR hits (Count)
system.cpu.dcache.WriteReq.mshrMisses::cpu.data       323177                       # number of WriteReq MSHR misses (Count)
system.cpu.dcache.WriteReq.mshrMisses::total       323177                       # number of WriteReq MSHR misses (Count)
system.cpu.dcache.WriteReq.mshrMissLatency::cpu.data  11723640500                       # number of WriteReq MSHR miss ticks (Tick)
system.cpu.dcache.WriteReq.mshrMissLatency::total  11723640500                       # number of WriteReq MSHR miss ticks (Tick)
system.cpu.dcache.WriteReq.mshrMissRate::cpu.data     0.059799                       # mshr miss rate for WriteReq accesses (Ratio)
system.cpu.dcache.WriteReq.mshrMissRate::total     0.059799                       # mshr miss rate for WriteReq accesses (Ratio)
system.cpu.dcache.WriteReq.avgMshrMissLatency::cpu.data 36276.221699                       # average WriteReq mshr miss latency ((Tick/Count))
system.cpu.dcache.WriteReq.avgMshrMissLatency::total 36276.221699                       # average WriteReq mshr miss latency ((Tick/Count))
system.cpu.dcache.power_state.pwrStateResidencyTicks::UNDEFINED  78186996500                       # Cumulative time (in ticks) in various power states (Tick)
system.cpu.dcache.tags.tagsInUse            15.999716                       # Average ticks per tags in use ((Tick/Count))
system.cpu.dcache.tags.totalRefs             14227885                       # Total number of references to valid blocks. (Count)
system.cpu.dcache.tags.sampledRefs            1137837                       # Sample count of references to valid blocks. (Count)
system.cpu.dcache.tags.avgRefs              12.504326                       # Average number of references to valid blocks. ((Count/Count))
system.cpu.dcache.tags.warmupTick              145000                       # The tick when the warmup percentage was hit. (Tick)
system.cpu.dcache.tags.occupancies::cpu.data    15.999716                       # Average occupied blocks per tick, per requestor ((Count/Tick))
system.cpu.dcache.tags.avgOccs::cpu.data     0.999982                       # Average percentage of cache occupancy ((Ratio/Tick))
system.cpu.dcache.tags.avgOccs::total        0.999982                       # Average percentage of cache occupancy ((Ratio/Tick))
system.cpu.dcache.tags.occupanciesTaskId::1024           16                       # Occupied blocks per task id (Count)
system.cpu.dcache.tags.ageTaskId_1024::0           16                       # Occupied blocks per task id, per block age (Count)
system.cpu.dcache.tags.ratioOccsTaskId::1024            1                       # Ratio of occupied blocks and all blocks, per task id (Ratio)
system.cpu.dcache.tags.tagAccesses           30080429                       # Number of tag accesses (Count)
system.cpu.dcache.tags.dataAccesses          30080429                       # Number of data accesses (Count)
system.cpu.dcache.tags.power_state.pwrStateResidencyTicks::UNDEFINED  78186996500                       # Cumulative time (in ticks) in various power states (Tick)
system.cpu.fetch2.intInstructions            24811958                       # Number of integer instructions successfully decoded (Count)
system.cpu.fetch2.fpInstructions                    0                       # Number of floating point instructions successfully decoded (Count)
system.cpu.fetch2.vecInstructions              999711                       # Number of SIMD instructions successfully decoded (Count)
system.cpu.fetch2.loadInstructions            7913224                       # Number of memory load instructions successfully decoded (Count)
system.cpu.fetch2.storeInstructions           3216430                       # Number of memory store instructions successfully decoded (Count)
system.cpu.fetch2.amoInstructions                  26                       # Number of memory atomic instructions successfully decoded (Count)
system.cpu.icache.demandHits::cpu.inst       13291260                       # number of demand (read+write) hits (Count)
system.cpu.icache.demandHits::total          13291260                       # number of demand (read+write) hits (Count)
system.cpu.icache.overallHits::cpu.inst      13291260                       # number of overall hits (Count)
system.cpu.icache.overallHits::total         13291260                       # number of overall hits (Count)
system.cpu.icache.demandMisses::cpu.inst        89532                       # number of demand (read+write) misses (Count)
system.cpu.icache.demandMisses::total           89532                       # number of demand (read+write) misses (Count)
system.cpu.icache.overallMisses::cpu.inst        89532                       # number of overall misses (Count)
system.cpu.icache.overallMisses::total          89532                       # number of overall misses (Count)
system.cpu.icache.demandMissLatency::cpu.inst   3949002500                       # number of demand (read+write) miss ticks (Tick)
system.cpu.icache.demandMissLatency::total   3949002500                       # number of demand (read+write) miss ticks (Tick)
system.cpu.icache.overallMissLatency::cpu.inst   3949002500                       # number of overall miss ticks (Tick)
system.cpu.icache.overallMissLatency::total   3949002500                       # number of overall miss ticks (Tick)
system.cpu.icache.demandAccesses::cpu.inst     13380792                       # number of demand (read+write) accesses (Count)
system.cpu.icache.demandAccesses::total      13380792                       # number of demand (read+write) accesses (Count)
system.cpu.icache.overallAccesses::cpu.inst     13380792                       # number of overall (read+write) accesses (Count)
system.cpu.icache.overallAccesses::total     13380792                       # number of overall (read+write) accesses (Count)
system.cpu.icache.demandMissRate::cpu.inst     0.006691                       # miss rate for demand accesses (Ratio)
system.cpu.icache.demandMissRate::total      0.006691                       # miss rate for demand accesses (Ratio)
system.cpu.icache.overallMissRate::cpu.inst     0.006691                       # miss rate for overall accesses (Ratio)
system.cpu.icache.overallMissRate::total     0.006691                       # miss rate for overall accesses (Ratio)
system.cpu.icache.demandAvgMissLatency::cpu.inst 44107.162802                       # average overall miss latency ((Cycle/Count))
system.cpu.icache.demandAvgMissLatency::total 44107.162802                       # average overall miss latency ((Cycle/Count))
system.cpu.icache.overallAvgMissLatency::cpu.inst 44107.162802                       # average overall miss latency ((Cycle/Count))
system.cpu.icache.overallAvgMissLatency::total 44107.162802                       # average overall miss latency ((Cycle/Count))
system.cpu.icache.blockedCycles::no_mshrs            0                       # number of cycles access was blocked (Cycle)
system.cpu.icache.blockedCycles::no_targets            0                       # number of cycles access was blocked (Cycle)
system.cpu.icache.blockedCauses::no_mshrs            0                       # number of times access was blocked (Count)
system.cpu.icache.blockedCauses::no_targets            0                       # number of times access was blocked (Count)
system.cpu.icache.avgBlocked::no_mshrs            nan                       # average number of cycles each access was blocked ((Cycle/Count))
system.cpu.icache.avgBlocked::no_targets          nan                       # average number of cycles each access was blocked ((Cycle/Count))
system.cpu.icache.writebacks::writebacks        89041                       # number of writebacks (Count)
system.cpu.icache.writebacks::total             89041                       # number of writebacks (Count)
system.cpu.icache.demandMshrMisses::cpu.inst        89532                       # number of demand (read+write) MSHR misses (Count)
system.cpu.icache.demandMshrMisses::total        89532                       # number of demand (read+write) MSHR misses (Count)
system.cpu.icache.overallMshrMisses::cpu.inst        89532                       # number of overall MSHR misses (Count)
system.cpu.icache.overallMshrMisses::total        89532                       # number of overall MSHR misses (Count)
system.cpu.icache.demandMshrMissLatency::cpu.inst   3859471500                       # number of demand (read+write) MSHR miss ticks (Tick)
system.cpu.icache.demandMshrMissLatency::total   3859471500                       # number of demand (read+write) MSHR miss ticks (Tick)
system.cpu.icache.overallMshrMissLatency::cpu.inst   3859471500                       # number of overall MSHR miss ticks (Tick)
system.cpu.icache.overallMshrMissLatency::total   3859471500                       # number of overall MSHR miss ticks (Tick)
system.cpu.icache.demandMshrMissRate::cpu.inst     0.006691                       # mshr miss ratio for demand accesses (Ratio)
system.cpu.icache.demandMshrMissRate::total     0.006691                       # mshr miss ratio for demand accesses (Ratio)
system.cpu.icache.overallMshrMissRate::cpu.inst     0.006691                       # mshr miss ratio for overall accesses (Ratio)
system.cpu.icache.overallMshrMissRate::total     0.006691                       # mshr miss ratio for overall accesses (Ratio)
system.cpu.icache.demandAvgMshrMissLatency::cpu.inst 43107.173971                       # average overall mshr miss latency ((Cycle/Count))
system.cpu.icache.demandAvgMshrMissLatency::total 43107.173971                       # average overall mshr miss latency ((Cycle/Count))
system.cpu.icache.overallAvgMshrMissLatency::cpu.inst 43107.173971                       # average overall mshr miss latency ((Cycle/Count))
system.cpu.icache.overallAvgMshrMissLatency::total 43107.173971                       # average overall mshr miss latency ((Cycle/Count))
system.cpu.icache.replacements                  89041                       # number of replacements (Count)
system.cpu.icache.ReadReq.hits::cpu.inst     13291260                       # number of ReadReq hits (Count)
system.cpu.icache.ReadReq.hits::total        13291260                       # number of ReadReq hits (Count)
system.cpu.icache.ReadReq.misses::cpu.inst        89532                       # number of ReadReq misses (Count)
system.cpu.icache.ReadReq.misses::total         89532                       # number of ReadReq misses (Count)
system.cpu.icache.ReadReq.missLatency::cpu.inst   3949002500                       # number of ReadReq miss ticks (Tick)
system.cpu.icache.ReadReq.missLatency::total   3949002500                       # number of ReadReq miss ticks (Tick)
system.cpu.icache.ReadReq.accesses::cpu.inst     13380792                       # number of ReadReq accesses(hits+misses) (Count)
system.cpu.icache.ReadReq.accesses::total     13380792                       # number of ReadReq accesses(hits+misses) (Count)
system.cpu.icache.ReadReq.missRate::cpu.inst     0.006691                       # miss rate for ReadReq accesses (Ratio)
system.cpu.icache.ReadReq.missRate::total     0.006691                       # miss rate for ReadReq accesses (Ratio)
system.cpu.icache.ReadReq.avgMissLatency::cpu.inst 44107.162802                       # average ReadReq miss latency ((Tick/Count))
system.cpu.icache.ReadReq.avgMissLatency::total 44107.162802                       # average ReadReq miss latency ((Tick/Count))
system.cpu.icache.ReadReq.mshrMisses::cpu.inst        89532                       # number of ReadReq MSHR misses (Count)
system.cpu.icache.ReadReq.mshrMisses::total        89532                       # number of ReadReq MSHR misses (Count)
system.cpu.icache.ReadReq.mshrMissLatency::cpu.inst   3859471500                       # number of ReadReq MSHR miss ticks (Tick)
system.cpu.icache.ReadReq.mshrMissLatency::total   3859471500                       # number of ReadReq MSHR miss ticks (Tick)
system.cpu.icache.ReadReq.mshrMissRate::cpu.inst     0.006691                       # mshr miss rate for ReadReq accesses (Ratio)
system.cpu.icache.ReadReq.mshrMissRate::total     0.006691                       # mshr miss rate for ReadReq accesses (Ratio)
system.cpu.icache.ReadReq.avgMshrMissLatency::cpu.inst 43107.173971                       # average ReadReq mshr miss latency ((Tick/Count))
system.cpu.icache.ReadReq.avgMshrMissLatency::total 43107.173971                       # average ReadReq mshr miss latency ((Tick/Count))
system.cpu.icache.power_state.pwrStateResidencyTicks::UNDEFINED  78186996500                       # Cumulative time (in ticks) in various power states (Tick)
system.cpu.icache.tags.tagsInUse           428.200353                       # Average ticks per tags in use ((Tick/Count))
system.cpu.icache.tags.totalRefs             13380791                       # Total number of references to valid blocks. (Count)
system.cpu.icache.tags.sampledRefs              89531                       # Sample count of references to valid blocks. (Count)
system.cpu.icache.tags.avgRefs             149.454278                       # Average number of references to valid blocks. ((Count/Count))
system.cpu.icache.tags.warmupTick               77000                       # The tick when the warmup percentage was hit. (Tick)
system.cpu.icache.tags.occupancies::cpu.inst   428.200353                       # Average occupied blocks per tick, per requestor ((Count/Tick))
system.cpu.icache.tags.avgOccs::cpu.inst     0.836329                       # Average percentage of cache occupancy ((Ratio/Tick))
system.cpu.icache.tags.avgOccs::total        0.836329                       # Average percentage of cache occupancy ((Ratio/Tick))
system.cpu.icache.tags.occupanciesTaskId::1024          490                       # Occupied blocks per task id (Count)
system.cpu.icache.tags.ageTaskId_1024::0           97                       # Occupied blocks per task id, per block age (Count)
system.cpu.icache.tags.ageTaskId_1024::1           60                       # Occupied blocks per task id, per block age (Count)
system.cpu.icache.tags.ageTaskId_1024::2           29                       # Occupied blocks per task id, per block age (Count)
system.cpu.icache.tags.ageTaskId_1024::3           89                       # Occupied blocks per task id, per block age (Count)
system.cpu.icache.tags.ageTaskId_1024::4          215                       # Occupied blocks per task id, per block age (Count)
system.cpu.icache.tags.ratioOccsTaskId::1024     0.957031                       # Ratio of occupied blocks and all blocks, per task id (Ratio)
system.cpu.icache.tags.tagAccesses           26851115                       # Number of tag accesses (Count)
system.cpu.icache.tags.dataAccesses          26851115                       # Number of data accesses (Count)
system.cpu.icache.tags.power_state.pwrStateResidencyTicks::UNDEFINED  78186996500                       # Cumulative time (in ticks) in various power states (Tick)
system.cpu.mmu.alignFaults                          0                       # Number of MMU faults due to alignment restrictions (Count)
system.cpu.mmu.prefetchFaults                       0                       # Number of MMU faults due to prefetch (Count)
system.cpu.mmu.domainFaults                         0                       # Number of MMU faults due to domain restrictions (Count)
system.cpu.mmu.permsFaults                          0                       # Number of MMU faults due to permissions restrictions (Count)
system.cpu.mmu.dtb.readHits                         0                       # Read hits (Count)
system.cpu.mmu.dtb.readMisses                       0                       # Read misses (Count)
system.cpu.mmu.dtb.writeHits                        0                       # Write hits (Count)
system.cpu.mmu.dtb.writeMisses                      0                       # Write misses (Count)
system.cpu.mmu.dtb.inserts                          0                       # Number of times an entry is inserted into the TLB (Count)
system.cpu.mmu.dtb.flushTlb                         1                       # Number of times complete TLB was flushed (Count)
system.cpu.mmu.dtb.flushTlbMva                      0                       # Number of times TLB was flushed by MVA (Count)
system.cpu.mmu.dtb.flushTlbMvaAsid                  0                       # Number of times TLB was flushed by MVA & ASID (Count)
system.cpu.mmu.dtb.flushTlbAsid                     0                       # Number of times TLB was flushed by ASID (Count)
system.cpu.mmu.dtb.flushedEntries                   0                       # Number of entries that have been flushed from TLB (Count)
system.cpu.mmu.dtb.readAccesses                     0                       # Read accesses (Count)
system.cpu.mmu.dtb.writeAccesses                    0                       # Write accesses (Count)
system.cpu.mmu.dtb.hits                             0                       # Total TLB (inst and data) hits (Count)
system.cpu.mmu.dtb.misses                           0                       # Total TLB (inst and data) misses (Count)
system.cpu.mmu.dtb.accesses                         0                       # Total TLB (inst and data) accesses (Count)
system.cpu.mmu.dtb_walker.walks                     0                       # Table walker walks requested (Count)
system.cpu.mmu.dtb_walker.requestOrigin_Requested::Data            0                       # Table walker requests started/completed, data/inst (Count)
system.cpu.mmu.dtb_walker.requestOrigin_Requested::Inst            0                       # Table walker requests started/completed, data/inst (Count)
system.cpu.mmu.dtb_walker.requestOrigin_Requested::total            0                       # Table walker requests started/completed, data/inst (Count)
system.cpu.mmu.dtb_walker.requestOrigin_Completed::Data            0                       # Table walker requests started/completed, data/inst (Count)
system.cpu.mmu.dtb_walker.requestOrigin_Completed::Inst            0                       # Table walker requests started/completed, data/inst (Count)
system.cpu.mmu.dtb_walker.requestOrigin_Completed::total            0                       # Table walker requests started/completed, data/inst (Count)
system.cpu.mmu.dtb_walker.requestOrigin::total            0                       # Table walker requests started/completed, data/inst (Count)
system.cpu.mmu.dtb_walker.power_state.pwrStateResidencyTicks::UNDEFINED  78186996500                       # Cumulative time (in ticks) in various power states (Tick)
system.cpu.mmu.itb.instHits                         0                       # Inst hits (Count)
system.cpu.mmu.itb.instMisses                       0                       # Inst misses (Count)
system.cpu.mmu.itb.inserts                          0                       # Number of times an entry is inserted into the TLB (Count)
system.cpu.mmu.itb.flushTlb                         1                       # Number of times complete TLB was flushed (Count)
system.cpu.mmu.itb.flushTlbMva                      0                       # Number of times TLB was flushed by MVA (Count)
system.cpu.mmu.itb.flushTlbMvaAsid                  0                       # Number of times TLB was flushed by MVA & ASID (Count)
system.cpu.mmu.itb.flushTlbAsid                     0                       # Number of times TLB was flushed by ASID (Count)
system.cpu.mmu.itb.flushedEntries                   0                       # Number of entries that have been flushed from TLB (Count)
system.cpu.mmu.itb.instAccesses                     0                       # Inst accesses (Count)
system.cpu.mmu.itb.hits                             0                       # Total TLB (inst and data) hits (Count)
system.cpu.mmu.itb.misses                           0                       # Total TLB (inst and data) misses (Count)
system.cpu.mmu.itb.accesses                         0                       # Total TLB (inst and data) accesses (Count)
system.cpu.mmu.itb_walker.walks                     0                       # Table walker walks requested (Count)
system.cpu.mmu.itb_walker.requestOrigin_Requested::Data            0                       # Table walker requests started/completed, data/inst (Count)
system.cpu.mmu.itb_walker.requestOrigin_Requested::Inst            0                       # Table walker requests started/completed, data/inst (Count)
system.cpu.mmu.itb_walker.requestOrigin_Requested::total            0                       # Table walker requests started/completed, data/inst (Count)
system.cpu.mmu.itb_walker.requestOrigin_Completed::Data            0                       # Table walker requests started/completed, data/inst (Count)
system.cpu.mmu.itb_walker.requestOrigin_Completed::Inst            0                       # Table walker requests started/completed, data/inst (Count)
system.cpu.mmu.itb_walker.requestOrigin_Completed::total            0                       # Table walker requests started/completed, data/inst (Count)
system.cpu.mmu.itb_walker.requestOrigin::total            0                       # Table walker requests started/completed, data/inst (Count)
system.cpu.mmu.itb_walker.power_state.pwrStateResidencyTicks::UNDEFINED  78186996500                       # Cumulative time (in ticks) in various power states (Tick)
system.cpu.mmu.l2_shared.instHits                   0                       # Inst hits (Count)
system.cpu.mmu.l2_shared.instMisses                 0                       # Inst misses (Count)
system.cpu.mmu.l2_shared.inserts                    0                       # Number of times an entry is inserted into the TLB (Count)
system.cpu.mmu.l2_shared.flushTlb                   1                       # Number of times complete TLB was flushed (Count)
system.cpu.mmu.l2_shared.flushTlbMva                0                       # Number of times TLB was flushed by MVA (Count)
system.cpu.mmu.l2_shared.flushTlbMvaAsid            0                       # Number of times TLB was flushed by MVA & ASID (Count)
system.cpu.mmu.l2_shared.flushTlbAsid               0                       # Number of times TLB was flushed by ASID (Count)
system.cpu.mmu.l2_shared.flushedEntries             0                       # Number of entries that have been flushed from TLB (Count)
system.cpu.mmu.l2_shared.instAccesses               0                       # Inst accesses (Count)
system.cpu.mmu.l2_shared.hits                       0                       # Total TLB (inst and data) hits (Count)
system.cpu.mmu.l2_shared.misses                     0                       # Total TLB (inst and data) misses (Count)
system.cpu.mmu.l2_shared.accesses                   0                       # Total TLB (inst and data) accesses (Count)
system.cpu.mmu.stage2_dtb.readHits                  0                       # Read hits (Count)
system.cpu.mmu.stage2_dtb.readMisses                0                       # Read misses (Count)
system.cpu.mmu.stage2_dtb.writeHits                 0                       # Write hits (Count)
system.cpu.mmu.stage2_dtb.writeMisses               0                       # Write misses (Count)
system.cpu.mmu.stage2_dtb.inserts                   0                       # Number of times an entry is inserted into the TLB (Count)
system.cpu.mmu.stage2_dtb.flushTlb                  1                       # Number of times complete TLB was flushed (Count)
system.cpu.mmu.stage2_dtb.flushTlbMva               0                       # Number of times TLB was flushed by MVA (Count)
system.cpu.mmu.stage2_dtb.flushTlbMvaAsid            0                       # Number of times TLB was flushed by MVA & ASID (Count)
system.cpu.mmu.stage2_dtb.flushTlbAsid              0                       # Number of times TLB was flushed by ASID (Count)
system.cpu.mmu.stage2_dtb.flushedEntries            0                       # Number of entries that have been flushed from TLB (Count)
system.cpu.mmu.stage2_dtb.readAccesses              0                       # Read accesses (Count)
system.cpu.mmu.stage2_dtb.writeAccesses             0                       # Write accesses (Count)
system.cpu.mmu.stage2_dtb.hits                      0                       # Total TLB (inst and data) hits (Count)
system.cpu.mmu.stage2_dtb.misses                    0                       # Total TLB (inst and data) misses (Count)
system.cpu.mmu.stage2_dtb.accesses                  0                       # Total TLB (inst and data) accesses (Count)
system.cpu.mmu.stage2_dtb_walker.walks              0                       # Table walker walks requested (Count)
system.cpu.mmu.stage2_dtb_walker.requestOrigin_Requested::Data            0                       # Table walker requests started/completed, data/inst (Count)
system.cpu.mmu.stage2_dtb_walker.requestOrigin_Requested::Inst            0                       # Table walker requests started/completed, data/inst (Count)
system.cpu.mmu.stage2_dtb_walker.requestOrigin_Requested::total            0                       # Table walker requests started/completed, data/inst (Count)
system.cpu.mmu.stage2_dtb_walker.requestOrigin_Completed::Data            0                       # Table walker requests started/completed, data/inst (Count)
system.cpu.mmu.stage2_dtb_walker.requestOrigin_Completed::Inst            0                       # Table walker requests started/completed, data/inst (Count)
system.cpu.mmu.stage2_dtb_walker.requestOrigin_Completed::total            0                       # Table walker requests started/completed, data/inst (Count)
system.cpu.mmu.stage2_dtb_walker.requestOrigin::total            0                       # Table walker requests started/completed, data/inst (Count)
system.cpu.mmu.stage2_dtb_walker.power_state.pwrStateResidencyTicks::UNDEFINED  78186996500                       # Cumulative time (in ticks) in various power states (Tick)
system.cpu.mmu.stage2_itb.instHits                  0                       # Inst hits (Count)
system.cpu.mmu.stage2_itb.instMisses                0                       # Inst misses (Count)
system.cpu.mmu.stage2_itb.inserts                   0                       # Number of times an entry is inserted into the TLB (Count)
system.cpu.mmu.stage2_itb.flushTlb                  1                       # Number of times complete TLB was flushed (Count)
system.cpu.mmu.stage2_itb.flushTlbMva               0                       # Number of times TLB was flushed by MVA (Count)
system.cpu.mmu.stage2_itb.flushTlbMvaAsid            0                       # Number of times TLB was flushed by MVA & ASID (Count)
system.cpu.mmu.stage2_itb.flushTlbAsid              0                       # Number of times TLB was flushed by ASID (Count)
system.cpu.mmu.stage2_itb.flushedEntries            0                       # Number of entries that have been flushed from TLB (Count)
system.cpu.mmu.stage2_itb.instAccesses              0                       # Inst accesses (Count)
system.cpu.mmu.stage2_itb.hits                      0                       # Total TLB (inst and data) hits (Count)
system.cpu.mmu.stage2_itb.misses                    0                       # Total TLB (inst and data) misses (Count)
system.cpu.mmu.stage2_itb.accesses                  0                       # Total TLB (inst and data) accesses (Count)
system.cpu.mmu.stage2_itb_walker.walks              0                       # Table walker walks requested (Count)
system.cpu.mmu.stage2_itb_walker.requestOrigin_Requested::Data            0                       # Table walker requests started/completed, data/inst (Count)
system.cpu.mmu.stage2_itb_walker.requestOrigin_Requested::Inst            0                       # Table walker requests started/completed, data/inst (Count)
system.cpu.mmu.stage2_itb_walker.requestOrigin_Requested::total            0                       # Table walker requests started/completed, data/inst (Count)
system.cpu.mmu.stage2_itb_walker.requestOrigin_Completed::Data            0                       # Table walker requests started/completed, data/inst (Count)
system.cpu.mmu.stage2_itb_walker.requestOrigin_Completed::Inst            0                       # Table walker requests started/completed, data/inst (Count)
system.cpu.mmu.stage2_itb_walker.requestOrigin_Completed::total            0                       # Table walker requests started/completed, data/inst (Count)
system.cpu.mmu.stage2_itb_walker.requestOrigin::total            0                       # Table walker requests started/completed, data/inst (Count)
system.cpu.mmu.stage2_itb_walker.power_state.pwrStateResidencyTicks::UNDEFINED  78186996500                       # Cumulative time (in ticks) in various power states (Tick)
system.cpu.power_state.pwrStateResidencyTicks::ON  78186996500                       # Cumulative time (in ticks) in various power states (Tick)
system.cpu.thread_0.numInsts                 42834982                       # Number of Instructions committed (Count)
system.cpu.thread_0.numOps                   47175355                       # Number of Ops committed (Count)
system.cpu.thread_0.numMemRefs                      0                       # Number of Memory References (Count)
system.cpu.workload.numSyscalls                  4122                       # Number of system calls (Count)
system.cpu_clk_domain.clock                       500                       # Clock period in ticks (Tick)
system.cpu_voltage_domain.voltage                   1                       # Voltage in Volts (Volt)
system.mem_ctrls.avgPriority_writebacks::samples    267092.00                       # Average QoS priority value for accepted requests (Count)
system.mem_ctrls.avgPriority_cpu.inst::samples     42169.00                       # Average QoS priority value for accepted requests (Count)
system.mem_ctrls.avgPriority_cpu.data::samples    838900.00                       # Average QoS priority value for accepted requests (Count)
system.mem_ctrls.priorityMinLatency      0.000000018750                       # per QoS priority minimum request to response latency (Second)
system.mem_ctrls.priorityMaxLatency      0.006532458500                       # per QoS priority maximum request to response latency (Second)
system.mem_ctrls.numReadWriteTurnArounds        16456                       # Number of turnarounds from READ to WRITE (Count)
system.mem_ctrls.numWriteReadTurnArounds        16456                       # Number of turnarounds from WRITE to READ (Count)
system.mem_ctrls.numStayReadState             2245885                       # Number of times bus staying in READ state (Count)
system.mem_ctrls.numStayWriteState             250842                       # Number of times bus staying in WRITE state (Count)
system.mem_ctrls.readReqs                     1225829                       # Number of read requests accepted (Count)
system.mem_ctrls.writeReqs                     497351                       # Number of write requests accepted (Count)
system.mem_ctrls.readBursts                   1225829                       # Number of controller read bursts, including those serviced by the write queue (Count)
system.mem_ctrls.writeBursts                   497351                       # Number of controller write bursts, including those merged in the write queue (Count)
system.mem_ctrls.servicedByWrQ                 344760                       # Number of controller read bursts serviced by the write queue (Count)
system.mem_ctrls.mergedWrBursts                230259                       # Number of controller write bursts merged with an existing one (Count)
system.mem_ctrls.neitherReadNorWriteReqs            0                       # Number of requests that are neither read nor write (Count)
system.mem_ctrls.avgRdQLen                       1.05                       # Average read queue length when enqueuing ((Count/Tick))
system.mem_ctrls.avgWrQLen                      25.87                       # Average write queue length when enqueuing ((Count/Tick))
system.mem_ctrls.numRdRetry                         0                       # Number of times read queue was full causing retry (Count)
system.mem_ctrls.numWrRetry                         1                       # Number of times write queue was full causing retry (Count)
system.mem_ctrls.readPktSize::0                     0                       # Read request sizes (log2) (Count)
system.mem_ctrls.readPktSize::1                     0                       # Read request sizes (log2) (Count)
system.mem_ctrls.readPktSize::2                     0                       # Read request sizes (log2) (Count)
system.mem_ctrls.readPktSize::3                     0                       # Read request sizes (log2) (Count)
system.mem_ctrls.readPktSize::4                     0                       # Read request sizes (log2) (Count)
system.mem_ctrls.readPktSize::5                     0                       # Read request sizes (log2) (Count)
system.mem_ctrls.readPktSize::6               1225829                       # Read request sizes (log2) (Count)
system.mem_ctrls.writePktSize::0                    0                       # Write request sizes (log2) (Count)
system.mem_ctrls.writePktSize::1                    0                       # Write request sizes (log2) (Count)
system.mem_ctrls.writePktSize::2                    0                       # Write request sizes (log2) (Count)
system.mem_ctrls.writePktSize::3                    0                       # Write request sizes (log2) (Count)
system.mem_ctrls.writePktSize::4                    0                       # Write request sizes (log2) (Count)
system.mem_ctrls.writePktSize::5                    0                       # Write request sizes (log2) (Count)
system.mem_ctrls.writePktSize::6               497351                       # Write request sizes (log2) (Count)
system.mem_ctrls.rdQLenPdf::0                  828220                       # What read queue length does an incoming req see (Count)
system.mem_ctrls.rdQLenPdf::1                   45374                       # What read queue length does an incoming req see (Count)
system.mem_ctrls.rdQLenPdf::2                    7475                       # What read queue length does an incoming req see (Count)
system.mem_ctrls.rdQLenPdf::3                       0                       # What read queue length does an incoming req see (Count)
system.mem_ctrls.rdQLenPdf::4                       0                       # What read queue length does an incoming req see (Count)
system.mem_ctrls.rdQLenPdf::5                       0                       # What read queue length does an incoming req see (Count)
system.mem_ctrls.rdQLenPdf::6                       0                       # What read queue length does an incoming req see (Count)
system.mem_ctrls.rdQLenPdf::7                       0                       # What read queue length does an incoming req see (Count)
system.mem_ctrls.rdQLenPdf::8                       0                       # What read queue length does an incoming req see (Count)
system.mem_ctrls.rdQLenPdf::9                       0                       # What read queue length does an incoming req see (Count)
system.mem_ctrls.rdQLenPdf::10                      0                       # What read queue length does an incoming req see (Count)
system.mem_ctrls.rdQLenPdf::11                      0                       # What read queue length does an incoming req see (Count)
system.mem_ctrls.rdQLenPdf::12                      0                       # What read queue length does an incoming req see (Count)
system.mem_ctrls.rdQLenPdf::13                      0                       # What read queue length does an incoming req see (Count)
system.mem_ctrls.rdQLenPdf::14                      0                       # What read queue length does an incoming req see (Count)
system.mem_ctrls.rdQLenPdf::15                      0                       # What read queue length does an incoming req see (Count)
system.mem_ctrls.rdQLenPdf::16                      0                       # What read queue length does an incoming req see (Count)
system.mem_ctrls.rdQLenPdf::17                      0                       # What read queue length does an incoming req see (Count)
system.mem_ctrls.rdQLenPdf::18                      0                       # What read queue length does an incoming req see (Count)
system.mem_ctrls.rdQLenPdf::19                      0                       # What read queue length does an incoming req see (Count)
system.mem_ctrls.rdQLenPdf::20                      0                       # What read queue length does an incoming req see (Count)
system.mem_ctrls.rdQLenPdf::21                      0                       # What read queue length does an incoming req see (Count)
system.mem_ctrls.rdQLenPdf::22                      0                       # What read queue length does an incoming req see (Count)
system.mem_ctrls.rdQLenPdf::23                      0                       # What read queue length does an incoming req see (Count)
system.mem_ctrls.rdQLenPdf::24                      0                       # What read queue length does an incoming req see (Count)
system.mem_ctrls.rdQLenPdf::25                      0                       # What read queue length does an incoming req see (Count)
system.mem_ctrls.rdQLenPdf::26                      0                       # What read queue length does an incoming req see (Count)
system.mem_ctrls.rdQLenPdf::27                      0                       # What read queue length does an incoming req see (Count)
system.mem_ctrls.rdQLenPdf::28                      0                       # What read queue length does an incoming req see (Count)
system.mem_ctrls.rdQLenPdf::29                      0                       # What read queue length does an incoming req see (Count)
system.mem_ctrls.rdQLenPdf::30                      0                       # What read queue length does an incoming req see (Count)
system.mem_ctrls.rdQLenPdf::31                      0                       # What read queue length does an incoming req see (Count)
system.mem_ctrls.wrQLenPdf::0                       1                       # What write queue length does an incoming req see (Count)
system.mem_ctrls.wrQLenPdf::1                       1                       # What write queue length does an incoming req see (Count)
system.mem_ctrls.wrQLenPdf::2                       1                       # What write queue length does an incoming req see (Count)
system.mem_ctrls.wrQLenPdf::3                       1                       # What write queue length does an incoming req see (Count)
system.mem_ctrls.wrQLenPdf::4                       1                       # What write queue length does an incoming req see (Count)
system.mem_ctrls.wrQLenPdf::5                       1                       # What write queue length does an incoming req see (Count)
system.mem_ctrls.wrQLenPdf::6                       1                       # What write queue length does an incoming req see (Count)
system.mem_ctrls.wrQLenPdf::7                       1                       # What write queue length does an incoming req see (Count)
system.mem_ctrls.wrQLenPdf::8                       1                       # What write queue length does an incoming req see (Count)
system.mem_ctrls.wrQLenPdf::9                       1                       # What write queue length does an incoming req see (Count)
system.mem_ctrls.wrQLenPdf::10                      1                       # What write queue length does an incoming req see (Count)
system.mem_ctrls.wrQLenPdf::11                      1                       # What write queue length does an incoming req see (Count)
system.mem_ctrls.wrQLenPdf::12                      1                       # What write queue length does an incoming req see (Count)
system.mem_ctrls.wrQLenPdf::13                      1                       # What write queue length does an incoming req see (Count)
system.mem_ctrls.wrQLenPdf::14                      1                       # What write queue length does an incoming req see (Count)
system.mem_ctrls.wrQLenPdf::15                    848                       # What write queue length does an incoming req see (Count)
system.mem_ctrls.wrQLenPdf::16                   1074                       # What write queue length does an incoming req see (Count)
system.mem_ctrls.wrQLenPdf::17                  12139                       # What write queue length does an incoming req see (Count)
system.mem_ctrls.wrQLenPdf::18                  15178                       # What write queue length does an incoming req see (Count)
system.mem_ctrls.wrQLenPdf::19                  16610                       # What write queue length does an incoming req see (Count)
system.mem_ctrls.wrQLenPdf::20                  16646                       # What write queue length does an incoming req see (Count)
system.mem_ctrls.wrQLenPdf::21                  17298                       # What write queue length does an incoming req see (Count)
system.mem_ctrls.wrQLenPdf::22                  19616                       # What write queue length does an incoming req see (Count)
system.mem_ctrls.wrQLenPdf::23                  16650                       # What write queue length does an incoming req see (Count)
system.mem_ctrls.wrQLenPdf::24                  16705                       # What write queue length does an incoming req see (Count)
system.mem_ctrls.wrQLenPdf::25                  16873                       # What write queue length does an incoming req see (Count)
system.mem_ctrls.wrQLenPdf::26                  17253                       # What write queue length does an incoming req see (Count)
system.mem_ctrls.wrQLenPdf::27                  16479                       # What write queue length does an incoming req see (Count)
system.mem_ctrls.wrQLenPdf::28                  16478                       # What write queue length does an incoming req see (Count)
system.mem_ctrls.wrQLenPdf::29                  16482                       # What write queue length does an incoming req see (Count)
system.mem_ctrls.wrQLenPdf::30                  16473                       # What write queue length does an incoming req see (Count)
system.mem_ctrls.wrQLenPdf::31                  16477                       # What write queue length does an incoming req see (Count)
system.mem_ctrls.wrQLenPdf::32                  16486                       # What write queue length does an incoming req see (Count)
system.mem_ctrls.wrQLenPdf::33                     90                       # What write queue length does an incoming req see (Count)
system.mem_ctrls.wrQLenPdf::34                     77                       # What write queue length does an incoming req see (Count)
system.mem_ctrls.wrQLenPdf::35                     43                       # What write queue length does an incoming req see (Count)
system.mem_ctrls.wrQLenPdf::36                     41                       # What write queue length does an incoming req see (Count)
system.mem_ctrls.wrQLenPdf::37                     47                       # What write queue length does an incoming req see (Count)
system.mem_ctrls.wrQLenPdf::38                     48                       # What write queue length does an incoming req see (Count)
system.mem_ctrls.wrQLenPdf::39                     55                       # What write queue length does an incoming req see (Count)
system.mem_ctrls.wrQLenPdf::40                     67                       # What write queue length does an incoming req see (Count)
system.mem_ctrls.wrQLenPdf::41                     66                       # What write queue length does an incoming req see (Count)
system.mem_ctrls.wrQLenPdf::42                     57                       # What write queue length does an incoming req see (Count)
system.mem_ctrls.wrQLenPdf::43                     44                       # What write queue length does an incoming req see (Count)
system.mem_ctrls.wrQLenPdf::44                     58                       # What write queue length does an incoming req see (Count)
system.mem_ctrls.wrQLenPdf::45                     79                       # What write queue length does an incoming req see (Count)
system.mem_ctrls.wrQLenPdf::46                     69                       # What write queue length does an incoming req see (Count)
system.mem_ctrls.wrQLenPdf::47                     84                       # What write queue length does an incoming req see (Count)
system.mem_ctrls.wrQLenPdf::48                     61                       # What write queue length does an incoming req see (Count)
system.mem_ctrls.wrQLenPdf::49                     62                       # What write queue length does an incoming req see (Count)
system.mem_ctrls.wrQLenPdf::50                     43                       # What write queue length does an incoming req see (Count)
system.mem_ctrls.wrQLenPdf::51                     44                       # What write queue length does an incoming req see (Count)
system.mem_ctrls.wrQLenPdf::52                     44                       # What write queue length does an incoming req see (Count)
system.mem_ctrls.wrQLenPdf::53                     37                       # What write queue length does an incoming req see (Count)
system.mem_ctrls.wrQLenPdf::54                     31                       # What write queue length does an incoming req see (Count)
system.mem_ctrls.wrQLenPdf::55                     21                       # What write queue length does an incoming req see (Count)
system.mem_ctrls.wrQLenPdf::56                     15                       # What write queue length does an incoming req see (Count)
system.mem_ctrls.wrQLenPdf::57                      5                       # What write queue length does an incoming req see (Count)
system.mem_ctrls.wrQLenPdf::58                      9                       # What write queue length does an incoming req see (Count)
system.mem_ctrls.wrQLenPdf::59                      5                       # What write queue length does an incoming req see (Count)
system.mem_ctrls.wrQLenPdf::60                      7                       # What write queue length does an incoming req see (Count)
system.mem_ctrls.wrQLenPdf::61                      1                       # What write queue length does an incoming req see (Count)
system.mem_ctrls.wrQLenPdf::62                      1                       # What write queue length does an incoming req see (Count)
system.mem_ctrls.wrQLenPdf::63                      1                       # What write queue length does an incoming req see (Count)
system.mem_ctrls.rdPerTurnAround::samples        16456                       # Reads before turning the bus around for writes (Count)
system.mem_ctrls.rdPerTurnAround::mean      53.540715                       # Reads before turning the bus around for writes (Count)
system.mem_ctrls.rdPerTurnAround::stdev    365.640376                       # Reads before turning the bus around for writes (Count)
system.mem_ctrls.rdPerTurnAround::0-511         16196     98.42%     98.42% # Reads before turning the bus around for writes (Count)
system.mem_ctrls.rdPerTurnAround::512-1023          222      1.35%     99.77% # Reads before turning the bus around for writes (Count)
system.mem_ctrls.rdPerTurnAround::1024-1535            1      0.01%     99.78% # Reads before turning the bus around for writes (Count)
system.mem_ctrls.rdPerTurnAround::1536-2047            1      0.01%     99.78% # Reads before turning the bus around for writes (Count)
system.mem_ctrls.rdPerTurnAround::2560-3071            1      0.01%     99.79% # Reads before turning the bus around for writes (Count)
system.mem_ctrls.rdPerTurnAround::4608-5119            1      0.01%     99.79% # Reads before turning the bus around for writes (Count)
system.mem_ctrls.rdPerTurnAround::5120-5631            1      0.01%     99.80% # Reads before turning the bus around for writes (Count)
[...]
system.mem_ctrls.dram.bwInstRead::cpu.inst     73285639                       # Instruction read bandwidth from this memory ((Byte/Second))
system.mem_ctrls.dram.bwInstRead::total      73285639                       # Instruction read bandwidth from this memory ((Byte/Second))
system.mem_ctrls.dram.bwWrite::writebacks    334222328                       # Write bandwidth from this memory ((Byte/Second))
system.mem_ctrls.dram.bwWrite::total        334222328                       # Write bandwidth from this memory ((Byte/Second))
system.mem_ctrls.dram.bwTotal::writebacks    334222328                       # Total bandwidth to/from this memory ((Byte/Second))
system.mem_ctrls.dram.bwTotal::cpu.inst      73285639                       # Total bandwidth to/from this memory ((Byte/Second))
system.mem_ctrls.dram.bwTotal::cpu.data     930116404                       # Total bandwidth to/from this memory ((Byte/Second))
system.mem_ctrls.dram.bwTotal::total       1337624371                       # Total bandwidth to/from this memory ((Byte/Second))
system.mem_ctrls.dram.readBursts               881069                       # Number of DRAM read bursts (Count)
system.mem_ctrls.dram.writeBursts              267074                       # Number of DRAM write bursts (Count)
system.mem_ctrls.dram.perBankRdBursts::0        88134                       # Per bank write bursts (Count)
system.mem_ctrls.dram.perBankRdBursts::1        90357                       # Per bank write bursts (Count)
system.mem_ctrls.dram.perBankRdBursts::2       151336                       # Per bank write bursts (Count)
system.mem_ctrls.dram.perBankRdBursts::3        66155                       # Per bank write bursts (Count)
system.mem_ctrls.dram.perBankRdBursts::4         1614                       # Per bank write bursts (Count)
system.mem_ctrls.dram.perBankRdBursts::5         2972                       # Per bank write bursts (Count)
system.mem_ctrls.dram.perBankRdBursts::6        18311                       # Per bank write bursts (Count)
system.mem_ctrls.dram.perBankRdBursts::7         2873                       # Per bank write bursts (Count)
system.mem_ctrls.dram.perBankRdBursts::8        27767                       # Per bank write bursts (Count)
system.mem_ctrls.dram.perBankRdBursts::9        95204                       # Per bank write bursts (Count)
system.mem_ctrls.dram.perBankRdBursts::10        74182                       # Per bank write bursts (Count)
system.mem_ctrls.dram.perBankRdBursts::11        74560                       # Per bank write bursts (Count)
system.mem_ctrls.dram.perBankRdBursts::12       135664                       # Per bank write bursts (Count)
system.mem_ctrls.dram.perBankRdBursts::13         6854                       # Per bank write bursts (Count)
system.mem_ctrls.dram.perBankRdBursts::14        22388                       # Per bank write bursts (Count)
system.mem_ctrls.dram.perBankRdBursts::15        22698                       # Per bank write bursts (Count)
system.mem_ctrls.dram.perBankWrBursts::0          524                       # Per bank write bursts (Count)
system.mem_ctrls.dram.perBankWrBursts::1         4067                       # Per bank write bursts (Count)
system.mem_ctrls.dram.perBankWrBursts::2       145367                       # Per bank write bursts (Count)
system.mem_ctrls.dram.perBankWrBursts::3        40394                       # Per bank write bursts (Count)
system.mem_ctrls.dram.perBankWrBursts::4          466                       # Per bank write bursts (Count)
system.mem_ctrls.dram.perBankWrBursts::5          649                       # Per bank write bursts (Count)
system.mem_ctrls.dram.perBankWrBursts::6        16695                       # Per bank write bursts (Count)
system.mem_ctrls.dram.perBankWrBursts::7          564                       # Per bank write bursts (Count)
system.mem_ctrls.dram.perBankWrBursts::8        12647                       # Per bank write bursts (Count)
system.mem_ctrls.dram.perBankWrBursts::9        12270                       # Per bank write bursts (Count)
system.mem_ctrls.dram.perBankWrBursts::10          554                       # Per bank write bursts (Count)
system.mem_ctrls.dram.perBankWrBursts::11        23149                       # Per bank write bursts (Count)
system.mem_ctrls.dram.perBankWrBursts::12          535                       # Per bank write bursts (Count)
system.mem_ctrls.dram.perBankWrBursts::13         8035                       # Per bank write bursts (Count)
system.mem_ctrls.dram.perBankWrBursts::14          538                       # Per bank write bursts (Count)
system.mem_ctrls.dram.perBankWrBursts::15          620                       # Per bank write bursts (Count)
system.mem_ctrls.dram.totQLat              6804774250                       # Total ticks spent queuing (Tick)
system.mem_ctrls.dram.totBusLat            4405345000                       # Total ticks spent in databus transfers (Tick)
system.mem_ctrls.dram.totMemAccLat        23324818000                       # Total ticks spent from burst creation until serviced by the DRAM (Tick)
system.mem_ctrls.dram.avgQLat                 7723.32                       # Average queueing delay per DRAM burst ((Tick/Count))
system.mem_ctrls.dram.avgBusLat               5000.00                       # Average bus latency per DRAM burst ((Tick/Count))
system.mem_ctrls.dram.avgMemAccLat           26473.32                       # Average memory access latency per DRAM burst ((Tick/Count))
system.mem_ctrls.dram.readRowHits              727258                       # Number of row buffer hits during reads (Count)
system.mem_ctrls.dram.writeRowHits             227588                       # Number of row buffer hits during writes (Count)
system.mem_ctrls.dram.readRowHitRate            82.54                       # Row buffer hit rate for reads (Ratio)
system.mem_ctrls.dram.writeRowHitRate           85.22                       # Row buffer hit rate for writes (Ratio)
system.mem_ctrls.dram.bytesPerActivate::samples       193284                       # Bytes accessed per row activation (Byte)
system.mem_ctrls.dram.bytesPerActivate::mean   380.155709                       # Bytes accessed per row activation (Byte)
system.mem_ctrls.dram.bytesPerActivate::gmean   242.876892                       # Bytes accessed per row activation (Byte)
system.mem_ctrls.dram.bytesPerActivate::stdev   353.544926                       # Bytes accessed per row activation (Byte)
system.mem_ctrls.dram.bytesPerActivate::0-127        37097     19.19%     19.19% # Bytes accessed per row activation (Byte)
system.mem_ctrls.dram.bytesPerActivate::128-255        68062     35.21%     54.41% # Bytes accessed per row activation (Byte)
system.mem_ctrls.dram.bytesPerActivate::256-383        23425     12.12%     66.53% # Bytes accessed per row activation (Byte)
system.mem_ctrls.dram.bytesPerActivate::384-511         9289      4.81%     71.33% # Bytes accessed per row activation (Byte)
system.mem_ctrls.dram.bytesPerActivate::512-639         7427      3.84%     75.17% # Bytes accessed per row activation (Byte)
system.mem_ctrls.dram.bytesPerActivate::640-767         5983      3.10%     78.27% # Bytes accessed per row activation (Byte)
system.mem_ctrls.dram.bytesPerActivate::768-895         4204      2.18%     80.44% # Bytes accessed per row activation (Byte)
system.mem_ctrls.dram.bytesPerActivate::896-1023         3003      1.55%     82.00% # Bytes accessed per row activation (Byte)
system.mem_ctrls.dram.bytesPerActivate::1024-1151        34794     18.00%    100.00% # Bytes accessed per row activation (Byte)
system.mem_ctrls.dram.bytesPerActivate::total       193284                       # Bytes accessed per row activation (Byte)
system.mem_ctrls.dram.bytesRead              56388416                       # Total bytes read (Byte)
system.mem_ctrls.dram.bytesWritten           17092736                       # Total bytes written (Byte)
system.mem_ctrls.dram.avgRdBW              721.199413                       # Average DRAM read bandwidth in MiBytes/s ((Byte/Second))
system.mem_ctrls.dram.avgWrBW              218.613539                       # Average DRAM write bandwidth in MiBytes/s ((Byte/Second))
system.mem_ctrls.dram.peakBW                 12800.00                       # Theoretical peak bandwidth in MiByte/s ((Byte/Second))
system.mem_ctrls.dram.busUtil                    7.34                       # Data bus utilization in percentage (Ratio)
system.mem_ctrls.dram.busUtilRead                5.63                       # Data bus utilization in percentage for reads (Ratio)
system.mem_ctrls.dram.busUtilWrite               1.71                       # Data bus utilization in percentage for writes (Ratio)
system.mem_ctrls.dram.pageHitRate               83.16                       # Row buffer hit rate, read and write combined (Ratio)
system.mem_ctrls.dram.power_state.pwrStateResidencyTicks::UNDEFINED  78186996500                       # Cumulative time (in ticks) in various power states (Tick)
system.mem_ctrls.dram.rank0.actEnergy       771548400                       # Energy for activate commands per rank (pJ) (Joule)
system.mem_ctrls.dram.rank0.preEnergy       410068725                       # Energy for precharge commands per rank (pJ) (Joule)
system.mem_ctrls.dram.rank0.readEnergy     3011309280                       # Energy for read commands per rank (pJ) (Joule)
system.mem_ctrls.dram.rank0.writeEnergy    1089549720                       # Energy for write commands per rank (pJ) (Joule)
system.mem_ctrls.dram.rank0.refreshEnergy 6171600240.000001                       # Energy for refresh commands per rank (pJ) (Joule)
system.mem_ctrls.dram.rank0.actBackEnergy  31643769450                       # Energy for active background per rank (pJ) (Joule)
system.mem_ctrls.dram.rank0.preBackEnergy   3376422240                       # Energy for precharge background per rank (pJ) (Joule)
system.mem_ctrls.dram.rank0.actPowerDownEnergy            0                       # Energy for active power-down per rank (pJ) (Joule)
system.mem_ctrls.dram.rank0.prePowerDownEnergy            0                       # Energy for precharge power-down per rank (pJ) (Joule)
system.mem_ctrls.dram.rank0.selfRefreshEnergy            0                       # Energy for self refresh per rank (pJ) (Joule)
system.mem_ctrls.dram.rank0.totalEnergy   46474268055                       # Total energy per rank (pJ) (Joule)
system.mem_ctrls.dram.rank0.averagePower   594.398943                       # Core power per rank (mW) (Watt)
system.mem_ctrls.dram.rank0.totalIdleTime            0                       # Total Idle time Per DRAM Rank (Tick)
system.mem_ctrls.dram.rank0.pwrStateTime::IDLE   8508907500                       # Time in different power states (Tick)
system.mem_ctrls.dram.rank0.pwrStateTime::REF   2610660000                       # Time in different power states (Tick)
system.mem_ctrls.dram.rank0.pwrStateTime::SREF            0                       # Time in different power states (Tick)
system.mem_ctrls.dram.rank0.pwrStateTime::PRE_PDN            0                       # Time in different power states (Tick)
system.mem_ctrls.dram.rank0.pwrStateTime::ACT  67067429000                       # Time in different power states (Tick)
system.mem_ctrls.dram.rank0.pwrStateTime::ACT_PDN            0                       # Time in different power states (Tick)
system.mem_ctrls.dram.rank1.actEnergy       608592180                       # Energy for activate commands per rank (pJ) (Joule)
system.mem_ctrls.dram.rank1.preEnergy       323444055                       # Energy for precharge commands per rank (pJ) (Joule)
system.mem_ctrls.dram.rank1.readEnergy     3279523380                       # Energy for read commands per rank (pJ) (Joule)
system.mem_ctrls.dram.rank1.writeEnergy     304576560                       # Energy for write commands per rank (pJ) (Joule)
system.mem_ctrls.dram.rank1.refreshEnergy 6171600240.000001                       # Energy for refresh commands per rank (pJ) (Joule)
system.mem_ctrls.dram.rank1.actBackEnergy  34317654270                       # Energy for active background per rank (pJ) (Joule)
system.mem_ctrls.dram.rank1.preBackEnergy   1124729760                       # Energy for precharge background per rank (pJ) (Joule)
system.mem_ctrls.dram.rank1.actPowerDownEnergy            0                       # Energy for active power-down per rank (pJ) (Joule)
system.mem_ctrls.dram.rank1.prePowerDownEnergy            0                       # Energy for precharge power-down per rank (pJ) (Joule)
system.mem_ctrls.dram.rank1.selfRefreshEnergy            0                       # Energy for self refresh per rank (pJ) (Joule)
system.mem_ctrls.dram.rank1.totalEnergy   46130120445                       # Total energy per rank (pJ) (Joule)
system.mem_ctrls.dram.rank1.averagePower   589.997346                       # Core power per rank (mW) (Watt)
system.mem_ctrls.dram.rank1.totalIdleTime            0                       # Total Idle time Per DRAM Rank (Tick)
system.mem_ctrls.dram.rank1.pwrStateTime::IDLE   2644914750                       # Time in different power states (Tick)
system.mem_ctrls.dram.rank1.pwrStateTime::REF   2610660000                       # Time in different power states (Tick)
system.mem_ctrls.dram.rank1.pwrStateTime::SREF            0                       # Time in different power states (Tick)
system.mem_ctrls.dram.rank1.pwrStateTime::PRE_PDN            0                       # Time in different power states (Tick)
system.mem_ctrls.dram.rank1.pwrStateTime::ACT  72931421750                       # Time in different power states (Tick)
system.mem_ctrls.dram.rank1.pwrStateTime::ACT_PDN            0                       # Time in different power states (Tick)
system.mem_ctrls.power_state.pwrStateResidencyTicks::UNDEFINED  78186996500                       # Cumulative time (in ticks) in various power states (Tick)
system.membus.transDist::ReadResp              902649                       # Transaction distribution (Count)
system.membus.transDist::WritebackDirty        408310                       # Transaction distribution (Count)
system.membus.transDist::WritebackClean         89041                       # Transaction distribution (Count)
system.membus.transDist::CleanEvict            729511                       # Transaction distribution (Count)
system.membus.transDist::ReadExReq             323179                       # Transaction distribution (Count)
system.membus.transDist::ReadExResp            323179                       # Transaction distribution (Count)
system.membus.transDist::ReadCleanReq           89532                       # Transaction distribution (Count)
system.membus.transDist::ReadSharedReq         813118                       # Transaction distribution (Count)
system.membus.transDist::InvalidateReq           1540                       # Transaction distribution (Count)
system.membus.pktCount_system.cpu.icache.mem_side_port::system.mem_ctrls.port       268104                       # Packet count per connected requestor and responder (Count)
system.membus.pktCount_system.cpu.dcache.mem_side_port::system.mem_ctrls.port      3411955                       # Packet count per connected requestor and responder (Count)
system.membus.pktCount::total                 3680059                       # Packet count per connected requestor and responder (Count)
system.membus.pktSize_system.cpu.icache.mem_side_port::system.mem_ctrls.port     11428608                       # Cumulative packet size per connected requestor and responder (Byte)
system.membus.pktSize_system.cpu.dcache.mem_side_port::system.mem_ctrls.port     98854848                       # Cumulative packet size per connected requestor and responder (Byte)
system.membus.pktSize::total                110283456                       # Cumulative packet size per connected requestor and responder (Byte)
system.membus.snoops                                0                       # Total snoops (Count)
system.membus.snoopTraffic                          0                       # Total snoop traffic (Byte)
system.membus.snoopFanout::samples            1227369                       # Request fanout histogram (Count)
system.membus.snoopFanout::mean              0.000001                       # Request fanout histogram (Count)
system.membus.snoopFanout::stdev             0.000903                       # Request fanout histogram (Count)
system.membus.snoopFanout::underflows               0      0.00%      0.00% # Request fanout histogram (Count)
system.membus.snoopFanout::0                  1227368    100.00%    100.00% # Request fanout histogram (Count)
system.membus.snoopFanout::1                        1      0.00%    100.00% # Request fanout histogram (Count)
system.membus.snoopFanout::2                        0      0.00%    100.00% # Request fanout histogram (Count)
system.membus.snoopFanout::overflows                0      0.00%    100.00% # Request fanout histogram (Count)
system.membus.snoopFanout::min_value                0                       # Request fanout histogram (Count)
system.membus.snoopFanout::max_value                1                       # Request fanout histogram (Count)
system.membus.snoopFanout::total              1227369                       # Request fanout histogram (Count)
system.membus.power_state.pwrStateResidencyTicks::UNDEFINED  78186996500                       # Cumulative time (in ticks) in various power states (Tick)
system.membus.reqLayer0.occupancy          4637971500                       # Layer occupancy (ticks) (Tick)
system.membus.reqLayer0.utilization               0.1                       # Layer utilization (Ratio)
system.membus.respLayer1.occupancy          464693500                       # Layer occupancy (ticks) (Tick)
system.membus.respLayer1.utilization              0.0                       # Layer utilization (Ratio)
system.membus.respLayer2.occupancy         5932339500                       # Layer occupancy (ticks) (Tick)
system.membus.respLayer2.utilization              0.1                       # Layer utilization (Ratio)
system.membus.snoop_filter.totRequests        2454232                       # Total number of requests made to the snoop filter. (Count)
system.membus.snoop_filter.hitSingleRequests      1226863                       # Number of requests hitting in the snoop filter with a single holder of the requested data. (Count)
system.membus.snoop_filter.hitMultiRequests            1                       # Number of requests hitting in the snoop filter with multiple (>1) holders of the requested data. (Count)
system.membus.snoop_filter.totSnoops                0                       # Total number of snoops made to the snoop filter. (Count)
system.membus.snoop_filter.hitSingleSnoops            0                       # Number of snoops hitting in the snoop filter with a single holder of the requested data. (Count)
system.membus.snoop_filter.hitMultiSnoops            0                       # Number of snoops hitting in the snoop filter with multiple (>1) holders of the requested data. (Count)
system.voltage_domain.voltage                       1                       # Voltage in Volts (Volt)
system.workload.inst.arm                            0                       # number of arm instructions executed (Count)
system.workload.inst.quiesce                        0                       # number of quiesce instructions executed (Count)
system.cpu.idleCycles                        97425887                       # Total number of cycles that the object has spent stopped (Unspecified)
system.cpu.tickCycles                        58948106                       # Number of cycles that the object actually ticked (Unspecified)

---------- End Simulation Statistics   ----------
