
---------- Begin Simulation Statistics ----------
simSeconds                                   0.017689                       # Number of seconds simulated (Second)
simTicks                                  17689439500                       # Number of ticks simulated (Tick)
finalTick                                 17689439500                       # Number of ticks from beginning of simulation (restored from checkpoints and never reset) (Tick)
simFreq                                  1000000000000                       # The number of ticks per simulated second ((Tick/Second))
hostSeconds                                     68.87                       # Real time elapsed on the host (Second)
hostTickRate                                256862773                       # The number of ticks simulated per host second (ticks/s) ((Tick/Second))
hostMemory                                     671948                       # Number of bytes of host memory used (Byte)
simInsts                                     42774967                       # Number of instructions simulated (Count)
simOps                                       47115337                       # Number of ops (including micro ops) simulated (Count)
hostInstRate                                   621121                       # Simulator instruction rate (inst/s) ((Count/Second))
hostOpRate                                     684146                       # Simulator op (including micro ops) rate (op/s) ((Count/Second))
system.clk_domain.clock                          1000                       # Clock period in ticks (Tick)
system.cpu.numCycles                         35378880                       # Number of cpu cycles simulated (Cycle)
system.cpu.numWorkItemsStarted                      0                       # Number of work items this cpu started (Count)
system.cpu.numWorkItemsCompleted                    0                       # Number of work items this cpu completed (Count)
system.cpu.instsAdded                        49997859                       # Number of instructions added to the IQ (excludes non-spec) (Count)
system.cpu.nonSpecInstsAdded                     4202                       # Number of non-speculative instructions added to the IQ (Count)
system.cpu.instsIssued                       49746166                       # Number of instructions issued (Count)
system.cpu.squashedInstsIssued                   9468                       # Number of squashed instructions issued (Count)
system.cpu.squashedInstsExamined              2886723                       # Number of squashed instructions iterated over during squash; mainly for profiling (Count)
system.cpu.squashedOperandsExamined           2104098                       # Number of squashed operands that are examined and possibly removed from graph (Count)
system.cpu.squashedNonSpecRemoved                  31                       # Number of squashed non-spec instructions that were removed (Count)
system.cpu.numIssuedDist::samples            34953370                       # Number of insts issued each cycle (Count)
system.cpu.numIssuedDist::mean               1.423215                       # Number of insts issued each cycle (Count)
system.cpu.numIssuedDist::stdev              1.795518                       # Number of insts issued each cycle (Count)
system.cpu.numIssuedDist::underflows                0      0.00%      0.00% # Number of insts issued each cycle (Count)
system.cpu.numIssuedDist::0                  16289938     46.60%     46.60% # Number of insts issued each cycle (Count)
system.cpu.numIssuedDist::1                   5441952     15.57%     62.17% # Number of insts issued each cycle (Count)
system.cpu.numIssuedDist::2                   5129330     14.67%     76.85% # Number of insts issued each cycle (Count)
system.cpu.numIssuedDist::3                   3052175      8.73%     85.58% # Number of insts issued each cycle (Count)
system.cpu.numIssuedDist::4                   2534125      7.25%     92.83% # Number of insts issued each cycle (Count)
system.cpu.numIssuedDist::5                   1200688      3.44%     96.27% # Number of insts issued each cycle (Count)
system.cpu.numIssuedDist::6                    672929      1.93%     98.19% # Number of insts issued each cycle (Count)
system.cpu.numIssuedDist::7                    346349      0.99%     99.18% # Number of insts issued each cycle (Count)
system.cpu.numIssuedDist::8                    285884      0.82%    100.00% # Number of insts issued each cycle (Count)
system.cpu.numIssuedDist::overflows                 0      0.00%    100.00% # Number of insts issued each cycle (Count)
system.cpu.numIssuedDist::min_value                 0                       # Number of insts issued each cycle (Count)
system.cpu.numIssuedDist::max_value                 8                       # Number of insts issued each cycle (Count)
system.cpu.numIssuedDist::total              34953370                       # Number of insts issued each cycle (Count)
system.cpu.statFuBusy::No_OpClass                   0      0.00%      0.00% # attempts to use FU when none available (Count)
system.cpu.statFuBusy::IntAlu                  170556     25.69%     25.69% # attempts to use FU when none available (Count)
system.cpu.statFuBusy::IntMult                  81422     12.27%     37.96% # attempts to use FU when none available (Count)
system.cpu.statFuBusy::IntDiv                       0      0.00%     37.96% # attempts to use FU when none available (Count)
system.cpu.statFuBusy::FloatAdd                     0      0.00%     37.96% # attempts to use FU when none available (Count)
system.cpu.statFuBusy::FloatCmp                     0      0.00%     37.96% # attempts to use FU when none available (Count)
system.cpu.statFuBusy::FloatCvt                     0      0.00%     37.96% # attempts to use FU when none available (Count)
system.cpu.statFuBusy::FloatMult                    0      0.00%     37.96% # attempts to use FU when none available (Count)
system.cpu.statFuBusy::FloatMultAcc                 0      0.00%     37.96% # attempts to use FU when none available (Count)
system.cpu.statFuBusy::FloatDiv                     0      0.00%     37.96% # attempts to use FU when none available (Count)
system.cpu.statFuBusy::FloatMisc                    0      0.00%     37.96% # attempts to use FU when none available (Count)
system.cpu.statFuBusy::FloatSqrt                    0      0.00%     37.96% # attempts to use FU when none available (Count)
system.cpu.statFuBusy::SimdAdd                      0      0.00%     37.96% # attempts to use FU when none available (Count)
system.cpu.statFuBusy::SimdAddAcc                   0      0.00%     37.96% # attempts to use FU when none available (Count)
system.cpu.statFuBusy::SimdAlu                      3      0.00%     37.96% # attempts to use FU when none available (Count)
system.cpu.statFuBusy::SimdCmp                   3604      0.54%     38.50% # attempts to use FU when none available (Count)
system.cpu.statFuBusy::SimdCvt                      0      0.00%     38.50% # attempts to use FU when none available (Count)
system.cpu.statFuBusy::SimdMisc                     0      0.00%     38.50% # attempts to use FU when none available (Count)
system.cpu.statFuBusy::SimdMult                     0      0.00%     38.50% # attempts to use FU when none available (Count)
system.cpu.statFuBusy::SimdMultAcc                  0      0.00%     38.50% # attempts to use FU when none available (Count)
system.cpu.statFuBusy::SimdShift                    0      0.00%     38.50% # attempts to use FU when none available (Count)
system.cpu.statFuBusy::SimdShiftAcc                 0      0.00%     38.50% # attempts to use FU when none available (Count)
system.cpu.statFuBusy::SimdDiv                      0      0.00%     38.50% # attempts to use FU when none available (Count)
system.cpu.statFuBusy::SimdSqrt                     0      0.00%     38.50% # attempts to use FU when none available (Count)
system.cpu.statFuBusy::SimdFloatAdd                 0      0.00%     38.50% # attempts to use FU when none available (Count)
system.cpu.statFuBusy::SimdFloatAlu                 0      0.00%     38.50% # attempts to use FU when none available (Count)
system.cpu.statFuBusy::SimdFloatCmp                 0      0.00%     38.50% # attempts to use FU when none available (Count)
system.cpu.statFuBusy::SimdFloatCvt                 0      0.00%     38.50% # attempts to use FU when none available (Count)
system.cpu.statFuBusy::SimdFloatDiv                 0      0.00%     38.50% # attempts to use FU when none available (Count)
system.cpu.statFuBusy::SimdFloatMisc                0      0.00%     38.50% # attempts to use FU when none available (Count)
system.cpu.statFuBusy::SimdFloatMult                0      0.00%     38.50% # attempts to use FU when none available (Count)
system.cpu.statFuBusy::SimdFloatMultAcc             0      0.00%     38.50% # attempts to use FU when none available (Count)
system.cpu.statFuBusy::SimdFloatSqrt                0      0.00%     38.50% # attempts to use FU when none available (Count)
system.cpu.statFuBusy::SimdReduceAdd                0      0.00%     38.50% # attempts to use FU when none available (Count)
system.cpu.statFuBusy::SimdReduceAlu                0      0.00%     38.50% # attempts to use FU when none available (Count)
system.cpu.statFuBusy::SimdReduceCmp                0      0.00%     38.50% # attempts to use FU when none available (Count)
system.cpu.statFuBusy::SimdFloatReduceAdd            0      0.00%     38.50% # attempts to use FU when none available (Count)
system.cpu.statFuBusy::SimdFloatReduceCmp            0      0.00%     38.50% # attempts to use FU when none available (Count)
system.cpu.statFuBusy::SimdAes                      0      0.00%     38.50% # attempts to use FU when none available (Count)
system.cpu.statFuBusy::SimdAesMix                   0      0.00%     38.50% # attempts to use FU when none available (Count)
system.cpu.statFuBusy::SimdSha1Hash                 0      0.00%     38.50% # attempts to use FU when none available (Count)
system.cpu.statFuBusy::SimdSha1Hash2                0      0.00%     38.50% # attempts to use FU when none available (Count)
system.cpu.statFuBusy::SimdSha256Hash               0      0.00%     38.50% # attempts to use FU when none available (Count)
system.cpu.statFuBusy::SimdSha256Hash2              0      0.00%     38.50% # attempts to use FU when none available (Count)
system.cpu.statFuBusy::SimdShaSigma2                0      0.00%     38.50% # attempts to use FU when none available (Count)
system.cpu.statFuBusy::SimdShaSigma3                0      0.00%     38.50% # attempts to use FU when none available (Count)
system.cpu.statFuBusy::SimdPredAlu                  0      0.00%     38.50% # attempts to use FU when none available (Count)
system.cpu.statFuBusy::MemRead                 227142     34.22%     72.72% # attempts to use FU when none available (Count)
system.cpu.statFuBusy::MemWrite                181118     27.28%    100.00% # attempts to use FU when none available (Count)
system.cpu.statFuBusy::FloatMemRead                 0      0.00%    100.00% # attempts to use FU when none available (Count)
system.cpu.statFuBusy::FloatMemWrite                0      0.00%    100.00% # attempts to use FU when none available (Count)
system.cpu.statFuBusy::IprAccess                    0      0.00%    100.00% # attempts to use FU when none available (Count)
system.cpu.statFuBusy::InstPrefetch                 0      0.00%    100.00% # attempts to use FU when none available (Count)
system.cpu.statIssuedInstType_0::No_OpClass        27823      0.06%      0.06% # Number of instructions issued per FU type, per thread (Count)
system.cpu.statIssuedInstType_0::IntAlu      31845765     64.02%     64.07% # Number of instructions issued per FU type, per thread (Count)
system.cpu.statIssuedInstType_0::IntMult       641413      1.29%     65.36% # Number of instructions issued per FU type, per thread (Count)
system.cpu.statIssuedInstType_0::IntDiv        154474      0.31%     65.67% # Number of instructions issued per FU type, per thread (Count)
system.cpu.statIssuedInstType_0::FloatAdd       278544      0.56%     66.23% # Number of instructions issued per FU type, per thread (Count)
system.cpu.statIssuedInstType_0::FloatCmp        16391      0.03%     66.27% # Number of instructions issued per FU type, per thread (Count)
system.cpu.statIssuedInstType_0::FloatCvt            0      0.00%     66.27% # Number of instructions issued per FU type, per thread (Count)
system.cpu.statIssuedInstType_0::FloatMult       262146      0.53%     66.79% # Number of instructions issued per FU type, per thread (Count)
system.cpu.statIssuedInstType_0::FloatMultAcc            0      0.00%     66.79% # Number of instructions issued per FU type, per thread (Count)
system.cpu.statIssuedInstType_0::FloatDiv            0      0.00%     66.79% # Number of instructions issued per FU type, per thread (Count)
system.cpu.statIssuedInstType_0::FloatMisc        61015      0.12%     66.91% # Number of instructions issued per FU type, per thread (Count)
system.cpu.statIssuedInstType_0::FloatSqrt            0      0.00%     66.91% # Number of instructions issued per FU type, per thread (Count)
system.cpu.statIssuedInstType_0::SimdAdd        63175      0.13%     67.04% # Number of instructions issued per FU type, per thread (Count)
system.cpu.statIssuedInstType_0::SimdAddAcc            0      0.00%     67.04% # Number of instructions issued per FU type, per thread (Count)
system.cpu.statIssuedInstType_0::SimdAlu       118766      0.24%     67.28% # Number of instructions issued per FU type, per thread (Count)
system.cpu.statIssuedInstType_0::SimdCmp       111196      0.22%     67.50% # Number of instructions issued per FU type, per thread (Count)
system.cpu.statIssuedInstType_0::SimdCvt            0      0.00%     67.50% # Number of instructions issued per FU type, per thread (Count)
system.cpu.statIssuedInstType_0::SimdMisc        76352      0.15%     67.66% # Number of instructions issued per FU type, per thread (Count)
system.cpu.statIssuedInstType_0::SimdMult            0      0.00%     67.66% # Number of instructions issued per FU type, per thread (Count)
system.cpu.statIssuedInstType_0::SimdMultAcc            0      0.00%     67.66% # Number of instructions issued per FU type, per thread (Count)
system.cpu.statIssuedInstType_0::SimdShift            0      0.00%     67.66% # Number of instructions issued per FU type, per thread (Count)
system.cpu.statIssuedInstType_0::SimdShiftAcc            0      0.00%     67.66% # Number of instructions issued per FU type, per thread (Count)
system.cpu.statIssuedInstType_0::SimdDiv            0      0.00%     67.66% # Number of instructions issued per FU type, per thread (Count)
system.cpu.statIssuedInstType_0::SimdSqrt            0      0.00%     67.66% # Number of instructions issued per FU type, per thread (Count)
system.cpu.statIssuedInstType_0::SimdFloatAdd            0      0.00%     67.66% # Number of instructions issued per FU type, per thread (Count)
system.cpu.statIssuedInstType_0::SimdFloatAlu            0      0.00%     67.66% # Number of instructions issued per FU type, per thread (Count)
system.cpu.statIssuedInstType_0::SimdFloatCmp            0      0.00%     67.66% # Number of instructions issued per FU type, per thread (Count)
system.cpu.statIssuedInstType_0::SimdFloatCvt            0      0.00%     67.66% # Number of instructions issued per FU type, per thread (Count)
system.cpu.statIssuedInstType_0::SimdFloatDiv            0      0.00%     67.66% # Number of instructions issued per FU type, per thread (Count)
system.cpu.statIssuedInstType_0::SimdFloatMisc            0      0.00%     67.66% # Number of instructions issued per FU type, per thread (Count)
system.cpu.statIssuedInstType_0::SimdFloatMult            0      0.00%     67.66% # Number of instructions issued per FU type, per thread (Count)
system.cpu.statIssuedInstType_0::SimdFloatMultAcc            0      0.00%     67.66% # Number of instructions issued per FU type, per thread (Count)
system.cpu.statIssuedInstType_0::SimdFloatSqrt            0      0.00%     67.66% # Number of instructions issued per FU type, per thread (Count)
system.cpu.statIssuedInstType_0::SimdReduceAdd            0      0.00%     67.66% # Number of instructions issued per FU type, per thread (Count)
system.cpu.statIssuedInstType_0::SimdReduceAlu            0      0.00%     67.66% # Number of instructions issued per FU type, per thread (Count)
system.cpu.statIssuedInstType_0::SimdReduceCmp            0      0.00%     67.66% # Number of instructions issued per FU type, per thread (Count)
system.cpu.statIssuedInstType_0::SimdFloatReduceAdd            0      0.00%     67.66% # Number of instructions issued per FU type, per thread (Count)
system.cpu.statIssuedInstType_0::SimdFloatReduceCmp            0      0.00%     67.66% # Number of instructions issued per FU type, per thread (Count)
system.cpu.statIssuedInstType_0::SimdAes            0      0.00%     67.66% # Number of instructions issued per FU type, per thread (Count)
system.cpu.statIssuedInstType_0::SimdAesMix            0      0.00%     67.66% # Number of instructions issued per FU type, per thread (Count)
system.cpu.statIssuedInstType_0::SimdSha1Hash            0      0.00%     67.66% # Number of instructions issued per FU type, per thread (Count)
system.cpu.statIssuedInstType_0::SimdSha1Hash2            0      0.00%     67.66% # Number of instructions issued per FU type, per thread (Count)
system.cpu.statIssuedInstType_0::SimdSha256Hash            0      0.00%     67.66% # Number of instructions issued per FU type, per thread (Count)
system.cpu.statIssuedInstType_0::SimdSha256Hash2            0      0.00%     67.66% # Number of instructions issued per FU type, per thread (Count)
system.cpu.statIssuedInstType_0::SimdShaSigma2            0      0.00%     67.66% # Number of instructions issued per FU type, per thread (Count)
system.cpu.statIssuedInstType_0::SimdShaSigma3            0      0.00%     67.66% # Number of instructions issued per FU type, per thread (Count)
system.cpu.statIssuedInstType_0::SimdPredAlu            0      0.00%     67.66% # Number of instructions issued per FU type, per thread (Count)
system.cpu.statIssuedInstType_0::MemRead     10435895     20.98%     88.64% # Number of instructions issued per FU type, per thread (Count)
system.cpu.statIssuedInstType_0::MemWrite      5653211     11.36%    100.00% # Number of instructions issued per FU type, per thread (Count)
system.cpu.statIssuedInstType_0::FloatMemRead            0      0.00%    100.00% # Number of instructions issued per FU type, per thread (Count)
system.cpu.statIssuedInstType_0::FloatMemWrite            0      0.00%    100.00% # Number of instructions issued per FU type, per thread (Count)
system.cpu.statIssuedInstType_0::IprAccess            0      0.00%    100.00% # Number of instructions issued per FU type, per thread (Count)
system.cpu.statIssuedInstType_0::InstPrefetch            0      0.00%    100.00% # Number of instructions issued per FU type, per thread (Count)
system.cpu.statIssuedInstType_0::total       49746166                       # Number of instructions issued per FU type, per thread (Count)
system.cpu.issueRate                         1.406098                       # Inst issue rate ((Count/Cycle))
system.cpu.fuBusy                              663845                       # FU busy when requested (Count)
system.cpu.fuBusyRate                        0.013345                       # FU busy rate (busy events/executed inst) ((Count/Count))
system.cpu.intInstQueueReads                129479857                       # Number of integer instruction queue reads (Count)
system.cpu.intInstQueueWrites                50010562                       # Number of integer instruction queue writes (Count)
system.cpu.intInstQueueWakeupAccesses        45936319                       # Number of integer instruction queue wakeup accesses (Count)
system.cpu.fpInstQueueReads                         0                       # Number of floating instruction queue reads (Count)
system.cpu.fpInstQueueWrites                        0                       # Number of floating instruction queue writes (Count)
system.cpu.fpInstQueueWakeupAccesses                0                       # Number of floating instruction queue wakeup accesses (Count)
system.cpu.vecInstQueueReads                  5639158                       # Number of vector instruction queue reads (Count)
system.cpu.vecInstQueueWrites                 2879497                       # Number of vector instruction queue writes (Count)
system.cpu.vecInstQueueWakeupAccesses         2792794                       # Number of vector instruction queue wakeup accesses (Count)
system.cpu.intAluAccesses                    47580777                       # Number of integer alu accesses (Count)
system.cpu.fpAluAccesses                            0                       # Number of floating point alu accesses (Count)
system.cpu.vecAluAccesses                     2801411                       # Number of vector alu accesses (Count)
system.cpu.numInsts                          49564714                       # Number of executed instructions (Count)
system.cpu.numLoadInsts                      10384724                       # Number of load instructions executed (Count)
system.cpu.numSquashedInsts                    181452                       # Number of squashed instructions skipped in execute (Count)
system.cpu.numSwp                                   0                       # Number of swp insts executed (Count)
system.cpu.numNop                               65668                       # Number of nop insts executed (Count)
system.cpu.numRefs                           16024122                       # Number of memory reference insts executed (Count)
system.cpu.numBranches                        6889967                       # Number of branches executed (Count)
system.cpu.numStoreInsts                      5639398                       # Number of stores executed (Count)
system.cpu.numRate                           1.400969                       # Inst execution rate ((Count/Cycle))
system.cpu.timesIdled                           16850                       # Number of times that the entire CPU went into an idle state and unscheduled itself (Count)
system.cpu.idleCycles                          425510                       # Total number of cycles that the CPU has spent unscheduled due to idling (Cycle)
system.cpu.committedInsts                    42774967                       # Number of Instructions Simulated (Count)
system.cpu.committedOps                      47115337                       # Number of Ops (including micro ops) Simulated (Count)
system.cpu.cpi                               0.827093                       # CPI: Cycles Per Instruction ((Cycle/Count))
system.cpu.totalCpi                          0.827093                       # CPI: Total CPI of All Threads ((Cycle/Count))
system.cpu.ipc                               1.209054                       # IPC: Instructions Per Cycle ((Count/Cycle))
system.cpu.totalIpc                          1.209054                       # IPC: Total IPC of All Threads ((Count/Cycle))
system.cpu.intRegfileReads                   58869977                       # Number of integer regfile reads (Count)
system.cpu.intRegfileWrites                  35673386                       # Number of integer regfile writes (Count)
system.cpu.vecRegfileReads                    2398864                       # number of vector regfile reads (Count)
system.cpu.vecRegfileWrites                   2137948                       # number of vector regfile writes (Count)
system.cpu.ccRegfileReads                    14574315                       # number of cc regfile reads (Count)
system.cpu.ccRegfileWrites                   14433422                       # number of cc regfile writes (Count)
system.cpu.miscRegfileReads                  96264829                       # number of misc regfile reads (Count)
system.cpu.miscRegfileWrites                   561209                       # number of misc regfile writes (Count)
system.cpu.MemDepUnit__0.insertedLoads        9837896                       # Number of loads inserted to the mem dependence unit. (Count)
system.cpu.MemDepUnit__0.insertedStores       5729966                       # Number of stores inserted to the mem dependence unit. (Count)
system.cpu.MemDepUnit__0.conflictingLoads      2482725                       # Number of conflicting loads. (Count)
system.cpu.MemDepUnit__0.conflictingStores      1064517                       # Number of conflicting stores. (Count)
system.cpu.MemDepUnit__1.insertedLoads              0                       # Number of loads inserted to the mem dependence unit. (Count)
system.cpu.MemDepUnit__1.insertedStores             0                       # Number of stores inserted to the mem dependence unit. (Count)
system.cpu.MemDepUnit__1.conflictingLoads            0                       # Number of conflicting loads. (Count)
system.cpu.MemDepUnit__1.conflictingStores            0                       # Number of conflicting stores. (Count)
system.cpu.MemDepUnit__2.insertedLoads              0                       # Number of loads inserted to the mem dependence unit. (Count)
system.cpu.MemDepUnit__2.insertedStores             0                       # Number of stores inserted to the mem dependence unit. (Count)
system.cpu.MemDepUnit__2.conflictingLoads            0                       # Number of conflicting loads. (Count)
system.cpu.MemDepUnit__2.conflictingStores            0                       # Number of conflicting stores. (Count)
system.cpu.MemDepUnit__3.insertedLoads              0                       # Number of loads inserted to the mem dependence unit. (Count)
system.cpu.MemDepUnit__3.insertedStores             0                       # Number of stores inserted to the mem dependence unit. (Count)
system.cpu.MemDepUnit__3.conflictingLoads            0                       # Number of conflicting loads. (Count)
system.cpu.MemDepUnit__3.conflictingStores            0                       # Number of conflicting stores. (Count)
system.cpu.branchPred.lookups                 7491225                       # Number of BP lookups (Count)
system.cpu.branchPred.condPredicted           5675691                       # Number of conditional branches predicted (Count)
system.cpu.branchPred.condIncorrect            142508                       # Number of conditional branches incorrect (Count)
system.cpu.branchPred.BTBLookups              4186909                       # Number of BTB lookups (Count)
system.cpu.branchPred.BTBHits                 4135571                       # Number of BTB hits (Count)
system.cpu.branchPred.BTBHitRatio            0.987738                       # BTB Hit Ratio (Ratio)
system.cpu.branchPred.RASUsed                  581865                       # Number of times the RAS was used to get a target. (Count)
system.cpu.branchPred.RASIncorrect                  4                       # Number of incorrect RAS predictions. (Count)
system.cpu.branchPred.indirectLookups           76255                       # Number of indirect predictor lookups. (Count)
system.cpu.branchPred.indirectHits              75437                       # Number of indirect target hits. (Count)
system.cpu.branchPred.indirectMisses              818                       # Number of indirect misses. (Count)
system.cpu.branchPred.indirectMispredicted          102                       # Number of mispredicted indirect branches. (Count)
system.cpu.commit.commitSquashedInsts         2899487                       # The number of squashed insts skipped by commit (Count)
system.cpu.commit.commitNonSpecStalls            4171                       # The number of times commit has been forced to stall to communicate backwards (Count)
system.cpu.commit.branchMispredicts            117504                       # The number of times a branch was mispredicted (Count)
system.cpu.commit.numCommittedDist::samples     34524488                       # Number of insts commited each cycle (Count)
system.cpu.commit.numCommittedDist::mean     1.366311                       # Number of insts commited each cycle (Count)
system.cpu.commit.numCommittedDist::stdev     2.502368                       # Number of insts commited each cycle (Count)
system.cpu.commit.numCommittedDist::underflows            0      0.00%      0.00% # Number of insts commited each cycle (Count)
system.cpu.commit.numCommittedDist::0        21379914     61.93%     61.93% # Number of insts commited each cycle (Count)
system.cpu.commit.numCommittedDist::1         5068461     14.68%     76.61% # Number of insts commited each cycle (Count)
system.cpu.commit.numCommittedDist::2         2280539      6.61%     83.21% # Number of insts commited each cycle (Count)
system.cpu.commit.numCommittedDist::3          917359      2.66%     85.87% # Number of insts commited each cycle (Count)
system.cpu.commit.numCommittedDist::4          648408      1.88%     87.75% # Number of insts commited each cycle (Count)
system.cpu.commit.numCommittedDist::5          226111      0.65%     88.40% # Number of insts commited each cycle (Count)
system.cpu.commit.numCommittedDist::6          194730      0.56%     88.97% # Number of insts commited each cycle (Count)
system.cpu.commit.numCommittedDist::7          574716      1.66%     90.63% # Number of insts commited each cycle (Count)
system.cpu.commit.numCommittedDist::8         3234250      9.37%    100.00% # Number of insts commited each cycle (Count)
system.cpu.commit.numCommittedDist::overflows            0      0.00%    100.00% # Number of insts commited each cycle (Count)
system.cpu.commit.numCommittedDist::min_value            0                       # Number of insts commited each cycle (Count)
system.cpu.commit.numCommittedDist::max_value            8                       # Number of insts commited each cycle (Count)
system.cpu.commit.numCommittedDist::total     34524488                       # Number of insts commited each cycle (Count)
system.cpu.commit.instsCommitted             42830825                       # Number of instructions committed (Count)
system.cpu.commit.opsCommitted               47171195                       # Number of ops (including micro ops) committed (Count)
system.cpu.commit.memRefs                    14762161                       # Number of memory references committed (Count)
system.cpu.commit.loads                       9356228                       # Number of loads committed (Count)
system.cpu.commit.amos                             20                       # Number of atomic instructions committed (Count)
system.cpu.commit.membars                          24                       # Number of memory barriers committed (Count)
system.cpu.commit.branches                    6624718                       # Number of branches committed (Count)
system.cpu.commit.vectorInstructions          2785221                       # Number of committed Vector instructions. (Count)
system.cpu.commit.floating                          0                       # Number of committed floating point instructions. (Count)
system.cpu.commit.integer                    41972714                       # Number of committed integer instructions. (Count)
system.cpu.commit.functionCalls                508101                       # Number of function calls committed. (Count)
system.cpu.commit.committedInstType_0::No_OpClass        27678      0.06%      0.06% # Class of committed instruction (Count)
system.cpu.commit.committedInstType_0::IntAlu     30612660     64.90%     64.96% # Class of committed instruction (Count)
system.cpu.commit.committedInstType_0::IntMult       641224      1.36%     66.31% # Class of committed instruction (Count)
system.cpu.commit.committedInstType_0::IntDiv       153813      0.33%     66.64% # Class of committed instruction (Count)
system.cpu.commit.committedInstType_0::FloatAdd       278528      0.59%     67.23% # Class of committed instruction (Count)
system.cpu.commit.committedInstType_0::FloatCmp        16384      0.03%     67.27% # Class of committed instruction (Count)
system.cpu.commit.committedInstType_0::FloatCvt            0      0.00%     67.27% # Class of committed instruction (Count)
system.cpu.commit.committedInstType_0::FloatMult       262144      0.56%     67.82% # Class of committed instruction (Count)
system.cpu.commit.committedInstType_0::FloatMultAcc            0      0.00%     67.82% # Class of committed instruction (Count)
system.cpu.commit.committedInstType_0::FloatDiv            0      0.00%     67.82% # Class of committed instruction (Count)
system.cpu.commit.committedInstType_0::FloatMisc        49152      0.10%     67.93% # Class of committed instruction (Count)
system.cpu.commit.committedInstType_0::FloatSqrt            0      0.00%     67.93% # Class of committed instruction (Count)
system.cpu.commit.committedInstType_0::SimdAdd        62740      0.13%     68.06% # Class of committed instruction (Count)
system.cpu.commit.committedInstType_0::SimdAddAcc            0      0.00%     68.06% # Class of committed instruction (Count)
system.cpu.commit.committedInstType_0::SimdAlu       118041      0.25%     68.31% # Class of committed instruction (Count)
system.cpu.commit.committedInstType_0::SimdCmp       110616      0.23%     68.54% # Class of committed instruction (Count)
system.cpu.commit.committedInstType_0::SimdCvt            0      0.00%     68.54% # Class of committed instruction (Count)
system.cpu.commit.committedInstType_0::SimdMisc        76054      0.16%     68.71% # Class of committed instruction (Count)
system.cpu.commit.committedInstType_0::SimdMult            0      0.00%     68.71% # Class of committed instruction (Count)
system.cpu.commit.committedInstType_0::SimdMultAcc            0      0.00%     68.71% # Class of committed instruction (Count)
system.cpu.commit.committedInstType_0::SimdShift            0      0.00%     68.71% # Class of committed instruction (Count)
system.cpu.commit.committedInstType_0::SimdShiftAcc            0      0.00%     68.71% # Class of committed instruction (Count)
system.cpu.commit.committedInstType_0::SimdDiv            0      0.00%     68.71% # Class of committed instruction (Count)
system.cpu.commit.committedInstType_0::SimdSqrt            0      0.00%     68.71% # Class of committed instruction (Count)
system.cpu.commit.committedInstType_0::SimdFloatAdd            0      0.00%     68.71% # Class of committed instruction (Count)
system.cpu.commit.committedInstType_0::SimdFloatAlu            0      0.00%     68.71% # Class of committed instruction (Count)
system.cpu.commit.committedInstType_0::SimdFloatCmp            0      0.00%     68.71% # Class of committed instruction (Count)
system.cpu.commit.committedInstType_0::SimdFloatCvt            0      0.00%     68.71% # Class of committed instruction (Count)
system.cpu.commit.committedInstType_0::SimdFloatDiv            0      0.00%     68.71% # Class of committed instruction (Count)
system.cpu.commit.committedInstType_0::SimdFloatMisc            0      0.00%     68.71% # Class of committed instruction (Count)
system.cpu.commit.committedInstType_0::SimdFloatMult            0      0.00%     68.71% # Class of committed instruction (Count)
system.cpu.commit.committedInstType_0::SimdFloatMultAcc            0      0.00%     68.71% # Class of committed instruction (Count)
system.cpu.commit.committedInstType_0::SimdFloatSqrt            0      0.00%     68.71% # Class of committed instruction (Count)
system.cpu.commit.committedInstType_0::SimdReduceAdd            0      0.00%     68.71% # Class of committed instruction (Count)
system.cpu.commit.committedInstType_0::SimdReduceAlu            0      0.00%     68.71% # Class of committed instruction (Count)
system.cpu.commit.committedInstType_0::SimdReduceCmp            0      0.00%     68.71% # Class of committed instruction (Count)
system.cpu.commit.committedInstType_0::SimdFloatReduceAdd            0      0.00%     68.71% # Class of committed instruction (Count)
system.cpu.commit.committedInstType_0::SimdFloatReduceCmp            0      0.00%     68.71% # Class of committed instruction (Count)
system.cpu.commit.committedInstType_0::SimdAes            0      0.00%     68.71% # Class of committed instruction (Count)
system.cpu.commit.committedInstType_0::SimdAesMix            0      0.00%     68.71% # Class of committed instruction (Count)
system.cpu.commit.committedInstType_0::SimdSha1Hash            0      0.00%     68.71% # Class of committed instruction (Count)
system.cpu.commit.committedInstType_0::SimdSha1Hash2            0      0.00%     68.71% # Class of committed instruction (Count)
system.cpu.commit.committedInstType_0::SimdSha256Hash            0      0.00%     68.71% # Class of committed instruction (Count)
system.cpu.commit.committedInstType_0::SimdSha256Hash2            0      0.00%     68.71% # Class of committed instruction (Count)
system.cpu.commit.committedInstType_0::SimdShaSigma2            0      0.00%     68.71% # Class of committed instruction (Count)
system.cpu.commit.committedInstType_0::SimdShaSigma3            0      0.00%     68.71% # Class of committed instruction (Count)
system.cpu.commit.committedInstType_0::SimdPredAlu            0      0.00%     68.71% # Class of committed instruction (Count)
system.cpu.commit.committedInstType_0::MemRead      9356228     19.83%     88.54% # Class of committed instruction (Count)
system.cpu.commit.committedInstType_0::MemWrite      5405933     11.46%    100.00% # Class of committed instruction (Count)
system.cpu.commit.committedInstType_0::FloatMemRead            0      0.00%    100.00% # Class of committed instruction (Count)
system.cpu.commit.committedInstType_0::FloatMemWrite            0      0.00%    100.00% # Class of committed instruction (Count)
system.cpu.commit.committedInstType_0::IprAccess            0      0.00%    100.00% # Class of committed instruction (Count)
system.cpu.commit.committedInstType_0::InstPrefetch            0      0.00%    100.00% # Class of committed instruction (Count)
system.cpu.commit.committedInstType_0::total     47171195                       # Class of committed instruction (Count)
system.cpu.commit.commitEligibleSamples       3234250                       # number cycles where commit BW limit reached (Cycle)
system.cpu.dcache.demandHits::cpu.data       12217351                       # number of demand (read+write) hits (Count)
system.cpu.dcache.demandHits::total          12217351                       # number of demand (read+write) hits (Count)
system.cpu.dcache.overallHits::cpu.data      12242976                       # number of overall hits (Count)
system.cpu.dcache.overallHits::total         12242976                       # number of overall hits (Count)
system.cpu.dcache.demandMisses::cpu.data       345845                       # number of demand (read+write) misses (Count)
system.cpu.dcache.demandMisses::total          345845                       # number of demand (read+write) misses (Count)
system.cpu.dcache.overallMisses::cpu.data       350043                       # number of overall misses (Count)
system.cpu.dcache.overallMisses::total         350043                       # number of overall misses (Count)
system.cpu.dcache.demandMissLatency::cpu.data  18598213835                       # number of demand (read+write) miss ticks (Tick)
system.cpu.dcache.demandMissLatency::total  18598213835                       # number of demand (read+write) miss ticks (Tick)
system.cpu.dcache.overallMissLatency::cpu.data  18598213835                       # number of overall miss ticks (Tick)
system.cpu.dcache.overallMissLatency::total  18598213835                       # number of overall miss ticks (Tick)
system.cpu.dcache.demandAccesses::cpu.data     12563196                       # number of demand (read+write) accesses (Count)
system.cpu.dcache.demandAccesses::total      12563196                       # number of demand (read+write) accesses (Count)
system.cpu.dcache.overallAccesses::cpu.data     12593019                       # number of overall (read+write) accesses (Count)
system.cpu.dcache.overallAccesses::total     12593019                       # number of overall (read+write) accesses (Count)
system.cpu.dcache.demandMissRate::cpu.data     0.027528                       # miss rate for demand accesses (Ratio)
system.cpu.dcache.demandMissRate::total      0.027528                       # miss rate for demand accesses (Ratio)
system.cpu.dcache.overallMissRate::cpu.data     0.027797                       # miss rate for overall accesses (Ratio)
system.cpu.dcache.overallMissRate::total     0.027797                       # miss rate for overall accesses (Ratio)
system.cpu.dcache.demandAvgMissLatency::cpu.data 53776.153580                       # average overall miss latency ((Cycle/Count))
system.cpu.dcache.demandAvgMissLatency::total 53776.153580                       # average overall miss latency ((Cycle/Count))
system.cpu.dcache.overallAvgMissLatency::cpu.data 53131.226264                       # average overall miss latency ((Cycle/Count))
system.cpu.dcache.overallAvgMissLatency::total 53131.226264                       # average overall miss latency ((Cycle/Count))
system.cpu.dcache.blockedCycles::no_mshrs       393374                       # number of cycles access was blocked (Cycle)
system.cpu.dcache.blockedCycles::no_targets            0                       # number of cycles access was blocked (Cycle)
system.cpu.dcache.blockedCauses::no_mshrs        13152                       # number of times access was blocked (Count)
system.cpu.dcache.blockedCauses::no_targets            0                       # number of times access was blocked (Count)
system.cpu.dcache.avgBlocked::no_mshrs      29.909824                       # average number of cycles each access was blocked ((Cycle/Count))
system.cpu.dcache.avgBlocked::no_targets          nan                       # average number of cycles each access was blocked ((Cycle/Count))
system.cpu.dcache.writebacks::writebacks        15766                       # number of writebacks (Count)
system.cpu.dcache.writebacks::total             15766                       # number of writebacks (Count)
system.cpu.dcache.demandMshrHits::cpu.data        37638                       # number of demand (read+write) MSHR hits (Count)
system.cpu.dcache.demandMshrHits::total         37638                       # number of demand (read+write) MSHR hits (Count)
system.cpu.dcache.overallMshrHits::cpu.data        37638                       # number of overall MSHR hits (Count)
system.cpu.dcache.overallMshrHits::total        37638                       # number of overall MSHR hits (Count)
system.cpu.dcache.demandMshrMisses::cpu.data       308207                       # number of demand (read+write) MSHR misses (Count)
system.cpu.dcache.demandMshrMisses::total       308207                       # number of demand (read+write) MSHR misses (Count)
system.cpu.dcache.overallMshrMisses::cpu.data       312373                       # number of overall MSHR misses (Count)
system.cpu.dcache.overallMshrMisses::total       312373                       # number of overall MSHR misses (Count)
system.cpu.dcache.demandMshrMissLatency::cpu.data  16453902866                       # number of demand (read+write) MSHR miss ticks (Tick)
system.cpu.dcache.demandMshrMissLatency::total  16453902866                       # number of demand (read+write) MSHR miss ticks (Tick)
system.cpu.dcache.overallMshrMissLatency::cpu.data  16665351366                       # number of overall MSHR miss ticks (Tick)
system.cpu.dcache.overallMshrMissLatency::total  16665351366                       # number of overall MSHR miss ticks (Tick)
system.cpu.dcache.demandMshrMissRate::cpu.data     0.024533                       # mshr miss ratio for demand accesses (Ratio)
system.cpu.dcache.demandMshrMissRate::total     0.024533                       # mshr miss ratio for demand accesses (Ratio)
system.cpu.dcache.overallMshrMissRate::cpu.data     0.024805                       # mshr miss ratio for overall accesses (Ratio)
system.cpu.dcache.overallMshrMissRate::total     0.024805                       # mshr miss ratio for overall accesses (Ratio)
system.cpu.dcache.demandAvgMshrMissLatency::cpu.data 53385.883079                       # average overall mshr miss latency ((Cycle/Count))
system.cpu.dcache.demandAvgMshrMissLatency::total 53385.883079                       # average overall mshr miss latency ((Cycle/Count))
system.cpu.dcache.overallAvgMshrMissLatency::cpu.data 53350.806139                       # average overall mshr miss latency ((Cycle/Count))
system.cpu.dcache.overallAvgMshrMissLatency::total 53350.806139                       # average overall mshr miss latency ((Cycle/Count))
system.cpu.dcache.replacements                 312118                       # number of replacements (Count)
system.cpu.dcache.LoadLockedReq.hits::cpu.data            8                       # number of LoadLockedReq hits (Count)
system.cpu.dcache.LoadLockedReq.hits::total            8                       # number of LoadLockedReq hits (Count)
system.cpu.dcache.LoadLockedReq.accesses::cpu.data            8                       # number of LoadLockedReq accesses(hits+misses) (Count)
system.cpu.dcache.LoadLockedReq.accesses::total            8                       # number of LoadLockedReq accesses(hits+misses) (Count)
system.cpu.dcache.ReadReq.hits::cpu.data      6820651                       # number of ReadReq hits (Count)
system.cpu.dcache.ReadReq.hits::total         6820651                       # number of ReadReq hits (Count)
system.cpu.dcache.ReadReq.misses::cpu.data       336636                       # number of ReadReq misses (Count)
system.cpu.dcache.ReadReq.misses::total        336636                       # number of ReadReq misses (Count)
system.cpu.dcache.ReadReq.missLatency::cpu.data  18283556000                       # number of ReadReq miss ticks (Tick)
system.cpu.dcache.ReadReq.missLatency::total  18283556000                       # number of ReadReq miss ticks (Tick)
system.cpu.dcache.ReadReq.accesses::cpu.data      7157287                       # number of ReadReq accesses(hits+misses) (Count)
system.cpu.dcache.ReadReq.accesses::total      7157287                       # number of ReadReq accesses(hits+misses) (Count)
system.cpu.dcache.ReadReq.missRate::cpu.data     0.047034                       # miss rate for ReadReq accesses (Ratio)
system.cpu.dcache.ReadReq.missRate::total     0.047034                       # miss rate for ReadReq accesses (Ratio)
system.cpu.dcache.ReadReq.avgMissLatency::cpu.data 54312.539360                       # average ReadReq miss latency ((Tick/Count))
system.cpu.dcache.ReadReq.avgMissLatency::total 54312.539360                       # average ReadReq miss latency ((Tick/Count))
system.cpu.dcache.ReadReq.mshrHits::cpu.data        36318                       # number of ReadReq MSHR hits (Count)
system.cpu.dcache.ReadReq.mshrHits::total        36318                       # number of ReadReq MSHR hits (Count)
system.cpu.dcache.ReadReq.mshrMisses::cpu.data       300318                       # number of ReadReq MSHR misses (Count)
system.cpu.dcache.ReadReq.mshrMisses::total       300318                       # number of ReadReq MSHR misses (Count)
system.cpu.dcache.ReadReq.mshrMissLatency::cpu.data  16197229000                       # number of ReadReq MSHR miss ticks (Tick)
system.cpu.dcache.ReadReq.mshrMissLatency::total  16197229000                       # number of ReadReq MSHR miss ticks (Tick)
system.cpu.dcache.ReadReq.mshrMissRate::cpu.data     0.041960                       # mshr miss rate for ReadReq accesses (Ratio)
system.cpu.dcache.ReadReq.mshrMissRate::total     0.041960                       # mshr miss rate for ReadReq accesses (Ratio)
system.cpu.dcache.ReadReq.avgMshrMissLatency::cpu.data 53933.593724                       # average ReadReq mshr miss latency ((Tick/Count))
system.cpu.dcache.ReadReq.avgMshrMissLatency::total 53933.593724                       # average ReadReq mshr miss latency ((Tick/Count))
system.cpu.dcache.SoftPFReq.hits::cpu.data        25625                       # number of SoftPFReq hits (Count)
system.cpu.dcache.SoftPFReq.hits::total         25625                       # number of SoftPFReq hits (Count)
system.cpu.dcache.SoftPFReq.misses::cpu.data         4198                       # number of SoftPFReq misses (Count)
system.cpu.dcache.SoftPFReq.misses::total         4198                       # number of SoftPFReq misses (Count)
system.cpu.dcache.SoftPFReq.accesses::cpu.data        29823                       # number of SoftPFReq accesses(hits+misses) (Count)
system.cpu.dcache.SoftPFReq.accesses::total        29823                       # number of SoftPFReq accesses(hits+misses) (Count)
system.cpu.dcache.SoftPFReq.missRate::cpu.data     0.140764                       # miss rate for SoftPFReq accesses (Ratio)
system.cpu.dcache.SoftPFReq.missRate::total     0.140764                       # miss rate for SoftPFReq accesses (Ratio)
system.cpu.dcache.SoftPFReq.mshrMisses::cpu.data         4166                       # number of SoftPFReq MSHR misses (Count)
system.cpu.dcache.SoftPFReq.mshrMisses::total         4166                       # number of SoftPFReq MSHR misses (Count)
system.cpu.dcache.SoftPFReq.mshrMissLatency::cpu.data    211448500                       # number of SoftPFReq MSHR miss ticks (Tick)
system.cpu.dcache.SoftPFReq.mshrMissLatency::total    211448500                       # number of SoftPFReq MSHR miss ticks (Tick)
system.cpu.dcache.SoftPFReq.mshrMissRate::cpu.data     0.139691                       # mshr miss rate for SoftPFReq accesses (Ratio)
system.cpu.dcache.SoftPFReq.mshrMissRate::total     0.139691                       # mshr miss rate for SoftPFReq accesses (Ratio)
system.cpu.dcache.SoftPFReq.avgMshrMissLatency::cpu.data 50755.760922                       # average SoftPFReq mshr miss latency ((Tick/Count))
system.cpu.dcache.SoftPFReq.avgMshrMissLatency::total 50755.760922                       # average SoftPFReq mshr miss latency ((Tick/Count))
system.cpu.dcache.StoreCondReq.hits::cpu.data            4                       # number of StoreCondReq hits (Count)
system.cpu.dcache.StoreCondReq.hits::total            4                       # number of StoreCondReq hits (Count)
system.cpu.dcache.StoreCondReq.accesses::cpu.data            4                       # number of StoreCondReq accesses(hits+misses) (Count)
system.cpu.dcache.StoreCondReq.accesses::total            4                       # number of StoreCondReq accesses(hits+misses) (Count)
system.cpu.dcache.SwapReq.hits::cpu.data           19                       # number of SwapReq hits (Count)
system.cpu.dcache.SwapReq.hits::total              19                       # number of SwapReq hits (Count)
system.cpu.dcache.SwapReq.misses::cpu.data            1                       # number of SwapReq misses (Count)
system.cpu.dcache.SwapReq.misses::total             1                       # number of SwapReq misses (Count)
system.cpu.dcache.SwapReq.missLatency::cpu.data        51000                       # number of SwapReq miss ticks (Tick)
system.cpu.dcache.SwapReq.missLatency::total        51000                       # number of SwapReq miss ticks (Tick)
system.cpu.dcache.SwapReq.accesses::cpu.data           20                       # number of SwapReq accesses(hits+misses) (Count)
system.cpu.dcache.SwapReq.accesses::total           20                       # number of SwapReq accesses(hits+misses) (Count)
system.cpu.dcache.SwapReq.missRate::cpu.data     0.050000                       # miss rate for SwapReq accesses (Ratio)
system.cpu.dcache.SwapReq.missRate::total     0.050000                       # miss rate for SwapReq accesses (Ratio)
system.cpu.dcache.SwapReq.avgMissLatency::cpu.data        51000                       # average SwapReq miss latency ((Tick/Count))
system.cpu.dcache.SwapReq.avgMissLatency::total        51000                       # average SwapReq miss latency ((Tick/Count))
system.cpu.dcache.SwapReq.mshrMisses::cpu.data            1                       # number of SwapReq MSHR misses (Count)
system.cpu.dcache.SwapReq.mshrMisses::total            1                       # number of SwapReq MSHR misses (Count)
system.cpu.dcache.SwapReq.mshrMissLatency::cpu.data        50000                       # number of SwapReq MSHR miss ticks (Tick)
system.cpu.dcache.SwapReq.mshrMissLatency::total        50000                       # number of SwapReq MSHR miss ticks (Tick)
system.cpu.dcache.SwapReq.mshrMissRate::cpu.data     0.050000                       # mshr miss rate for SwapReq accesses (Ratio)
system.cpu.dcache.SwapReq.mshrMissRate::total     0.050000                       # mshr miss rate for SwapReq accesses (Ratio)
system.cpu.dcache.SwapReq.avgMshrMissLatency::cpu.data        50000                       # average SwapReq mshr miss latency ((Tick/Count))
system.cpu.dcache.SwapReq.avgMshrMissLatency::total        50000                       # average SwapReq mshr miss latency ((Tick/Count))
system.cpu.dcache.WriteLineReq.misses::cpu.data         1540                       # number of WriteLineReq misses (Count)
system.cpu.dcache.WriteLineReq.misses::total         1540                       # number of WriteLineReq misses (Count)
system.cpu.dcache.WriteLineReq.missLatency::cpu.data     29032367                       # number of WriteLineReq miss ticks (Tick)
system.cpu.dcache.WriteLineReq.missLatency::total     29032367                       # number of WriteLineReq miss ticks (Tick)
system.cpu.dcache.WriteLineReq.accesses::cpu.data         1540                       # number of WriteLineReq accesses(hits+misses) (Count)
system.cpu.dcache.WriteLineReq.accesses::total         1540                       # number of WriteLineReq accesses(hits+misses) (Count)
system.cpu.dcache.WriteLineReq.missRate::cpu.data            1                       # miss rate for WriteLineReq accesses (Ratio)
system.cpu.dcache.WriteLineReq.missRate::total            1                       # miss rate for WriteLineReq accesses (Ratio)
system.cpu.dcache.WriteLineReq.avgMissLatency::cpu.data 18852.186364                       # average WriteLineReq miss latency ((Tick/Count))
system.cpu.dcache.WriteLineReq.avgMissLatency::total 18852.186364                       # average WriteLineReq miss latency ((Tick/Count))
system.cpu.dcache.WriteLineReq.mshrMisses::cpu.data         1540                       # number of WriteLineReq MSHR misses (Count)
system.cpu.dcache.WriteLineReq.mshrMisses::total         1540                       # number of WriteLineReq MSHR misses (Count)
system.cpu.dcache.WriteLineReq.mshrMissLatency::cpu.data     27492367                       # number of WriteLineReq MSHR miss ticks (Tick)
system.cpu.dcache.WriteLineReq.mshrMissLatency::total     27492367                       # number of WriteLineReq MSHR miss ticks (Tick)
system.cpu.dcache.WriteLineReq.mshrMissRate::cpu.data            1                       # mshr miss rate for WriteLineReq accesses (Ratio)
system.cpu.dcache.WriteLineReq.mshrMissRate::total            1                       # mshr miss rate for WriteLineReq accesses (Ratio)
system.cpu.dcache.WriteLineReq.avgMshrMissLatency::cpu.data 17852.186364                       # average WriteLineReq mshr miss latency ((Tick/Count))
system.cpu.dcache.WriteLineReq.avgMshrMissLatency::total 17852.186364                       # average WriteLineReq mshr miss latency ((Tick/Count))
system.cpu.dcache.WriteReq.hits::cpu.data      5396700                       # number of WriteReq hits (Count)
system.cpu.dcache.WriteReq.hits::total        5396700                       # number of WriteReq hits (Count)
system.cpu.dcache.WriteReq.misses::cpu.data         7669                       # number of WriteReq misses (Count)
system.cpu.dcache.WriteReq.misses::total         7669                       # number of WriteReq misses (Count)
system.cpu.dcache.WriteReq.missLatency::cpu.data    285625468                       # number of WriteReq miss ticks (Tick)
system.cpu.dcache.WriteReq.missLatency::total    285625468                       # number of WriteReq miss ticks (Tick)
system.cpu.dcache.WriteReq.accesses::cpu.data      5404369                       # number of WriteReq accesses(hits+misses) (Count)
system.cpu.dcache.WriteReq.accesses::total      5404369                       # number of WriteReq accesses(hits+misses) (Count)
system.cpu.dcache.WriteReq.missRate::cpu.data     0.001419                       # miss rate for WriteReq accesses (Ratio)
system.cpu.dcache.WriteReq.missRate::total     0.001419                       # miss rate for WriteReq accesses (Ratio)
system.cpu.dcache.WriteReq.avgMissLatency::cpu.data 37244.160647                       # average WriteReq miss latency ((Tick/Count))
system.cpu.dcache.WriteReq.avgMissLatency::total 37244.160647                       # average WriteReq miss latency ((Tick/Count))
system.cpu.dcache.WriteReq.mshrHits::cpu.data         1320                       # number of WriteReq MSHR hits (Count)
system.cpu.dcache.WriteReq.mshrHits::total         1320                       # number of WriteReq MSHR hits (Count)
system.cpu.dcache.WriteReq.mshrMisses::cpu.data         6349                       # number of WriteReq MSHR misses (Count)
system.cpu.dcache.WriteReq.mshrMisses::total         6349                       # number of WriteReq MSHR misses (Count)
system.cpu.dcache.WriteReq.mshrMissLatency::cpu.data    229181499                       # number of WriteReq MSHR miss ticks (Tick)
system.cpu.dcache.WriteReq.mshrMissLatency::total    229181499                       # number of WriteReq MSHR miss ticks (Tick)
system.cpu.dcache.WriteReq.mshrMissRate::cpu.data     0.001175                       # mshr miss rate for WriteReq accesses (Ratio)
system.cpu.dcache.WriteReq.mshrMissRate::total     0.001175                       # mshr miss rate for WriteReq accesses (Ratio)
system.cpu.dcache.WriteReq.avgMshrMissLatency::cpu.data 36097.259253                       # average WriteReq mshr miss latency ((Tick/Count))
system.cpu.dcache.WriteReq.avgMshrMissLatency::total 36097.259253                       # average WriteReq mshr miss latency ((Tick/Count))
system.cpu.dcache.power_state.pwrStateResidencyTicks::UNDEFINED  17689439500                       # Cumulative time (in ticks) in various power states (Tick)
system.cpu.dcache.tags.tagsInUse           255.851408                       # Average ticks per tags in use ((Tick/Count))
system.cpu.dcache.tags.totalRefs             12555381                       # Total number of references to valid blocks. (Count)
system.cpu.dcache.tags.sampledRefs             312374                       # Sample count of references to valid blocks. (Count)
system.cpu.dcache.tags.avgRefs              40.193425                       # Average number of references to valid blocks. ((Count/Count))
system.cpu.dcache.tags.warmupTick              145000                       # The tick when the warmup percentage was hit. (Tick)
system.cpu.dcache.tags.occupancies::cpu.data   255.851408                       # Average occupied blocks per tick, per requestor ((Count/Tick))
system.cpu.dcache.tags.avgOccs::cpu.data     0.999420                       # Average percentage of cache occupancy ((Ratio/Tick))
system.cpu.dcache.tags.avgOccs::total        0.999420                       # Average percentage of cache occupancy ((Ratio/Tick))
system.cpu.dcache.tags.occupanciesTaskId::1024          256                       # Occupied blocks per task id (Count)
system.cpu.dcache.tags.ageTaskId_1024::0           97                       # Occupied blocks per task id, per block age (Count)
system.cpu.dcache.tags.ageTaskId_1024::1          159                       # Occupied blocks per task id, per block age (Count)
system.cpu.dcache.tags.ratioOccsTaskId::1024            1                       # Ratio of occupied blocks and all blocks, per task id (Ratio)
system.cpu.dcache.tags.tagAccesses           25498476                       # Number of tag accesses (Count)
system.cpu.dcache.tags.dataAccesses          25498476                       # Number of data accesses (Count)
system.cpu.dcache.tags.power_state.pwrStateResidencyTicks::UNDEFINED  17689439500                       # Cumulative time (in ticks) in various power states (Tick)
system.cpu.decode.idleCycles                  5581110                       # Number of cycles decode is idle (Cycle)
system.cpu.decode.blockedCycles              20706591                       # Number of cycles decode is blocked (Cycle)
system.cpu.decode.runCycles                   6718474                       # Number of cycles decode is running (Cycle)
system.cpu.decode.unblockCycles               1824496                       # Number of cycles decode is unblocking (Cycle)
system.cpu.decode.squashCycles                 122699                       # Number of cycles decode is squashing (Cycle)
system.cpu.decode.branchResolved              4068819                       # Number of times decode resolved a branch (Count)
system.cpu.decode.branchMispred                 25012                       # Number of times decode detected a branch misprediction (Count)
system.cpu.decode.decodedInsts               50950372                       # Number of instructions handled by decode (Count)
system.cpu.decode.squashedInsts                140841                       # Number of squashed instructions handled by decode (Count)
system.cpu.fetch.icacheStallCycles            7561821                       # Number of cycles fetch is stalled on an Icache miss (Cycle)
system.cpu.fetch.insts                       47585371                       # Number of instructions fetch has processed (Count)
system.cpu.fetch.branches                     7491225                       # Number of branches that fetch encountered (Count)
system.cpu.fetch.predictedBranches            4792873                       # Number of branches that fetch has predicted taken (Count)
system.cpu.fetch.cycles                      27243708                       # Number of cycles fetch has run and was not squashing or blocked (Cycle)
system.cpu.fetch.squashCycles                  295406                       # Number of cycles fetch has spent squashing (Cycle)
system.cpu.fetch.miscStallCycles                   62                       # Number of cycles fetch has spent waiting on interrupts, or bad addresses, or out of MSHRs (Cycle)
system.cpu.fetch.icacheWaitRetryStallCycles           76                       # Number of stall cycles due to full MSHR (Cycle)
system.cpu.fetch.cacheLines                   6885015                       # Number of cache lines fetched (Count)
system.cpu.fetch.icacheSquashes                 48155                       # Number of outstanding Icache misses that were squashed (Count)
system.cpu.fetch.nisnDist::samples           34953370                       # Number of instructions fetched each cycle (Total) (Count)
system.cpu.fetch.nisnDist::mean              1.503066                       # Number of instructions fetched each cycle (Total) (Count)
system.cpu.fetch.nisnDist::stdev             2.645894                       # Number of instructions fetched each cycle (Total) (Count)
system.cpu.fetch.nisnDist::underflows               0      0.00%      0.00% # Number of instructions fetched each cycle (Total) (Count)
system.cpu.fetch.nisnDist::0                 24384044     69.76%     69.76% # Number of instructions fetched each cycle (Total) (Count)
system.cpu.fetch.nisnDist::1                   824312      2.36%     72.12% # Number of instructions fetched each cycle (Total) (Count)
system.cpu.fetch.nisnDist::2                  1395665      3.99%     76.11% # Number of instructions fetched each cycle (Total) (Count)
system.cpu.fetch.nisnDist::3                  1242450      3.55%     79.67% # Number of instructions fetched each cycle (Total) (Count)
system.cpu.fetch.nisnDist::4                  1333073      3.81%     83.48% # Number of instructions fetched each cycle (Total) (Count)
system.cpu.fetch.nisnDist::5                  1403890      4.02%     87.50% # Number of instructions fetched each cycle (Total) (Count)
system.cpu.fetch.nisnDist::6                   865260      2.48%     89.97% # Number of instructions fetched each cycle (Total) (Count)
system.cpu.fetch.nisnDist::7                   386473      1.11%     91.08% # Number of instructions fetched each cycle (Total) (Count)
system.cpu.fetch.nisnDist::8                  3118203      8.92%    100.00% # Number of instructions fetched each cycle (Total) (Count)
system.cpu.fetch.nisnDist::overflows                0      0.00%    100.00% # Number of instructions fetched each cycle (Total) (Count)
system.cpu.fetch.nisnDist::min_value                0                       # Number of instructions fetched each cycle (Total) (Count)
system.cpu.fetch.nisnDist::max_value                8                       # Number of instructions fetched each cycle (Total) (Count)
system.cpu.fetch.nisnDist::total             34953370                       # Number of instructions fetched each cycle (Total) (Count)
system.cpu.fetch.branchRate                  0.211743                       # Number of branch fetches per cycle (Ratio)
system.cpu.fetch.rate                        1.345022                       # Number of inst fetches per cycle ((Count/Cycle))
system.cpu.icache.demandHits::cpu.inst        6859089                       # number of demand (read+write) hits (Count)
system.cpu.icache.demandHits::total           6859089                       # number of demand (read+write) hits (Count)
system.cpu.icache.overallHits::cpu.inst       6859089                       # number of overall hits (Count)
system.cpu.icache.overallHits::total          6859089                       # number of overall hits (Count)
system.cpu.icache.demandMisses::cpu.inst        25925                       # number of demand (read+write) misses (Count)
system.cpu.icache.demandMisses::total           25925                       # number of demand (read+write) misses (Count)
system.cpu.icache.overallMisses::cpu.inst        25925                       # number of overall misses (Count)
system.cpu.icache.overallMisses::total          25925                       # number of overall misses (Count)
system.cpu.icache.demandMissLatency::cpu.inst    640077998                       # number of demand (read+write) miss ticks (Tick)
system.cpu.icache.demandMissLatency::total    640077998                       # number of demand (read+write) miss ticks (Tick)
system.cpu.icache.overallMissLatency::cpu.inst    640077998                       # number of overall miss ticks (Tick)
system.cpu.icache.overallMissLatency::total    640077998                       # number of overall miss ticks (Tick)
system.cpu.icache.demandAccesses::cpu.inst      6885014                       # number of demand (read+write) accesses (Count)
system.cpu.icache.demandAccesses::total       6885014                       # number of demand (read+write) accesses (Count)
system.cpu.icache.overallAccesses::cpu.inst      6885014                       # number of overall (read+write) accesses (Count)
system.cpu.icache.overallAccesses::total      6885014                       # number of overall (read+write) accesses (Count)
system.cpu.icache.demandMissRate::cpu.inst     0.003765                       # miss rate for demand accesses (Ratio)
system.cpu.icache.demandMissRate::total      0.003765                       # miss rate for demand accesses (Ratio)
system.cpu.icache.overallMissRate::cpu.inst     0.003765                       # miss rate for overall accesses (Ratio)
system.cpu.icache.overallMissRate::total     0.003765                       # miss rate for overall accesses (Ratio)
system.cpu.icache.demandAvgMissLatency::cpu.inst 24689.604552                       # average overall miss latency ((Cycle/Count))
system.cpu.icache.demandAvgMissLatency::total 24689.604552                       # average overall miss latency ((Cycle/Count))
system.cpu.icache.overallAvgMissLatency::cpu.inst 24689.604552                       # average overall miss latency ((Cycle/Count))
system.cpu.icache.overallAvgMissLatency::total 24689.604552                       # average overall miss latency ((Cycle/Count))
system.cpu.icache.blockedCycles::no_mshrs          699                       # number of cycles access was blocked (Cycle)
system.cpu.icache.blockedCycles::no_targets            0                       # number of cycles access was blocked (Cycle)
system.cpu.icache.blockedCauses::no_mshrs           12                       # number of times access was blocked (Count)
system.cpu.icache.blockedCauses::no_targets            0                       # number of times access was blocked (Count)
system.cpu.icache.avgBlocked::no_mshrs      58.250000                       # average number of cycles each access was blocked ((Cycle/Count))
system.cpu.icache.avgBlocked::no_targets          nan                       # average number of cycles each access was blocked ((Cycle/Count))
system.cpu.icache.writebacks::writebacks        25078                       # number of writebacks (Count)
system.cpu.icache.writebacks::total             25078                       # number of writebacks (Count)
system.cpu.icache.demandMshrHits::cpu.inst          367                       # number of demand (read+write) MSHR hits (Count)
system.cpu.icache.demandMshrHits::total           367                       # number of demand (read+write) MSHR hits (Count)
system.cpu.icache.overallMshrHits::cpu.inst          367                       # number of overall MSHR hits (Count)
system.cpu.icache.overallMshrHits::total          367                       # number of overall MSHR hits (Count)
system.cpu.icache.demandMshrMisses::cpu.inst        25558                       # number of demand (read+write) MSHR misses (Count)
system.cpu.icache.demandMshrMisses::total        25558                       # number of demand (read+write) MSHR misses (Count)
system.cpu.icache.overallMshrMisses::cpu.inst        25558                       # number of overall MSHR misses (Count)
system.cpu.icache.overallMshrMisses::total        25558                       # number of overall MSHR misses (Count)
system.cpu.icache.demandMshrMissLatency::cpu.inst    600231498                       # number of demand (read+write) MSHR miss ticks (Tick)
system.cpu.icache.demandMshrMissLatency::total    600231498                       # number of demand (read+write) MSHR miss ticks (Tick)
system.cpu.icache.overallMshrMissLatency::cpu.inst    600231498                       # number of overall MSHR miss ticks (Tick)
system.cpu.icache.overallMshrMissLatency::total    600231498                       # number of overall MSHR miss ticks (Tick)
system.cpu.icache.demandMshrMissRate::cpu.inst     0.003712                       # mshr miss ratio for demand accesses (Ratio)
system.cpu.icache.demandMshrMissRate::total     0.003712                       # mshr miss ratio for demand accesses (Ratio)
system.cpu.icache.overallMshrMissRate::cpu.inst     0.003712                       # mshr miss ratio for overall accesses (Ratio)
system.cpu.icache.overallMshrMissRate::total     0.003712                       # mshr miss ratio for overall accesses (Ratio)
system.cpu.icache.demandAvgMshrMissLatency::cpu.inst 23485.073089                       # average overall mshr miss latency ((Cycle/Count))
system.cpu.icache.demandAvgMshrMissLatency::total 23485.073089                       # average overall mshr miss latency ((Cycle/Count))
system.cpu.icache.overallAvgMshrMissLatency::cpu.inst 23485.073089                       # average overall mshr miss latency ((Cycle/Count))
system.cpu.icache.overallAvgMshrMissLatency::total 23485.073089                       # average overall mshr miss latency ((Cycle/Count))
system.cpu.icache.replacements                  25078                       # number of replacements (Count)
system.cpu.icache.ReadReq.hits::cpu.inst      6859089                       # number of ReadReq hits (Count)
system.cpu.icache.ReadReq.hits::total         6859089                       # number of ReadReq hits (Count)
system.cpu.icache.ReadReq.misses::cpu.inst        25925                       # number of ReadReq misses (Count)
system.cpu.icache.ReadReq.misses::total         25925                       # number of ReadReq misses (Count)
system.cpu.icache.ReadReq.missLatency::cpu.inst    640077998                       # number of ReadReq miss ticks (Tick)
system.cpu.icache.ReadReq.missLatency::total    640077998                       # number of ReadReq miss ticks (Tick)
system.cpu.icache.ReadReq.accesses::cpu.inst      6885014                       # number of ReadReq accesses(hits+misses) (Count)
system.cpu.icache.ReadReq.accesses::total      6885014                       # number of ReadReq accesses(hits+misses) (Count)
system.cpu.icache.ReadReq.missRate::cpu.inst     0.003765                       # miss rate for ReadReq accesses (Ratio)
system.cpu.icache.ReadReq.missRate::total     0.003765                       # miss rate for ReadReq accesses (Ratio)
system.cpu.icache.ReadReq.avgMissLatency::cpu.inst 24689.604552                       # average ReadReq miss latency ((Tick/Count))
system.cpu.icache.ReadReq.avgMissLatency::total 24689.604552                       # average ReadReq miss latency ((Tick/Count))
system.cpu.icache.ReadReq.mshrHits::cpu.inst          367                       # number of ReadReq MSHR hits (Count)
system.cpu.icache.ReadReq.mshrHits::total          367                       # number of ReadReq MSHR hits (Count)
system.cpu.icache.ReadReq.mshrMisses::cpu.inst        25558                       # number of ReadReq MSHR misses (Count)
system.cpu.icache.ReadReq.mshrMisses::total        25558                       # number of ReadReq MSHR misses (Count)
system.cpu.icache.ReadReq.mshrMissLatency::cpu.inst    600231498                       # number of ReadReq MSHR miss ticks (Tick)
system.cpu.icache.ReadReq.mshrMissLatency::total    600231498                       # number of ReadReq MSHR miss ticks (Tick)
system.cpu.icache.ReadReq.mshrMissRate::cpu.inst     0.003712                       # mshr miss rate for ReadReq accesses (Ratio)
system.cpu.icache.ReadReq.mshrMissRate::total     0.003712                       # mshr miss rate for ReadReq accesses (Ratio)
system.cpu.icache.ReadReq.avgMshrMissLatency::cpu.inst 23485.073089                       # average ReadReq mshr miss latency ((Tick/Count))
system.cpu.icache.ReadReq.avgMshrMissLatency::total 23485.073089                       # average ReadReq mshr miss latency ((Tick/Count))
system.cpu.icache.power_state.pwrStateResidencyTicks::UNDEFINED  17689439500                       # Cumulative time (in ticks) in various power states (Tick)
system.cpu.icache.tags.tagsInUse           402.349788                       # Average ticks per tags in use ((Tick/Count))
system.cpu.icache.tags.totalRefs              6884646                       # Total number of references to valid blocks. (Count)
system.cpu.icache.tags.sampledRefs              25557                       # Sample count of references to valid blocks. (Count)
system.cpu.icache.tags.avgRefs             269.383965                       # Average number of references to valid blocks. ((Count/Count))
system.cpu.icache.tags.warmupTick               77000                       # The tick when the warmup percentage was hit. (Tick)
system.cpu.icache.tags.occupancies::cpu.inst   402.349788                       # Average occupied blocks per tick, per requestor ((Count/Tick))
system.cpu.icache.tags.avgOccs::cpu.inst     0.785839                       # Average percentage of cache occupancy ((Ratio/Tick))
system.cpu.icache.tags.avgOccs::total        0.785839                       # Average percentage of cache occupancy ((Ratio/Tick))
system.cpu.icache.tags.occupanciesTaskId::1024          479                       # Occupied blocks per task id (Count)
system.cpu.icache.tags.ageTaskId_1024::0          128                       # Occupied blocks per task id, per block age (Count)
system.cpu.icache.tags.ageTaskId_1024::1           24                       # Occupied blocks per task id, per block age (Count)
system.cpu.icache.tags.ageTaskId_1024::3          176                       # Occupied blocks per task id, per block age (Count)
system.cpu.icache.tags.ageTaskId_1024::4          151                       # Occupied blocks per task id, per block age (Count)
system.cpu.icache.tags.ratioOccsTaskId::1024     0.935547                       # Ratio of occupied blocks and all blocks, per task id (Ratio)
system.cpu.icache.tags.tagAccesses           13795585                       # Number of tag accesses (Count)
system.cpu.icache.tags.dataAccesses          13795585                       # Number of data accesses (Count)
system.cpu.icache.tags.power_state.pwrStateResidencyTicks::UNDEFINED  17689439500                       # Cumulative time (in ticks) in various power states (Tick)
system.cpu.iew.idleCycles                           0                       # Number of cycles IEW is idle (Cycle)
system.cpu.iew.squashCycles                    122699                       # Number of cycles IEW is squashing (Cycle)
system.cpu.iew.blockCycles                    3647987                       # Number of cycles IEW is blocking (Cycle)
system.cpu.iew.unblockCycles                  2219201                       # Number of cycles IEW is unblocking (Cycle)
system.cpu.iew.dispatchedInsts               50067729                       # Number of instructions dispatched to IQ (Count)
system.cpu.iew.dispSquashedInsts                16569                       # Number of squashed instructions skipped by dispatch (Count)
system.cpu.iew.dispLoadInsts                  9837896                       # Number of dispatched load instructions (Count)
system.cpu.iew.dispStoreInsts                 5729966                       # Number of dispatched store instructions (Count)
system.cpu.iew.dispNonSpecInsts                  4202                       # Number of dispatched non-speculative instructions (Count)
system.cpu.iew.iqFullEvents                    140734                       # Number of times the IQ has become full, causing a stall (Count)
system.cpu.iew.lsqFullEvents                  2041449                       # Number of times the LSQ has become full, causing a stall (Count)
system.cpu.iew.memOrderViolationEvents           1307                       # Number of memory order violations (Count)
system.cpu.iew.predictedTakenIncorrect          42272                       # Number of branches that were predicted taken incorrectly (Count)
system.cpu.iew.predictedNotTakenIncorrect        76983                       # Number of branches that were predicted not taken incorrectly (Count)
system.cpu.iew.branchMispredicts               119255                       # Number of branch mispredicts detected at execute (Count)
system.cpu.iew.instsToCommit                 48750689                       # Cumulative count of insts sent to commit (Count)
system.cpu.iew.writebackCount                48729113                       # Cumulative count of insts written-back (Count)
system.cpu.iew.producerInst                  28953929                       # Number of instructions producing a value (Count)
[...]
system.mem_ctrls.dram.bwRead::cpu.inst       92464659                       # Total read bandwidth from this memory ((Byte/Second))
system.mem_ctrls.dram.bwRead::cpu.data     1124583286                       # Total read bandwidth from this memory ((Byte/Second))
system.mem_ctrls.dram.bwRead::total        1217047945                       # Total read bandwidth from this memory ((Byte/Second))
system.mem_ctrls.dram.bwInstRead::cpu.inst     92464659                       # Instruction read bandwidth from this memory ((Byte/Second))
system.mem_ctrls.dram.bwInstRead::total      92464659                       # Instruction read bandwidth from this memory ((Byte/Second))
system.mem_ctrls.dram.bwWrite::writebacks     57041039                       # Write bandwidth from this memory ((Byte/Second))
system.mem_ctrls.dram.bwWrite::total         57041039                       # Write bandwidth from this memory ((Byte/Second))
system.mem_ctrls.dram.bwTotal::writebacks     57041039                       # Total bandwidth to/from this memory ((Byte/Second))
system.mem_ctrls.dram.bwTotal::cpu.inst      92464659                       # Total bandwidth to/from this memory ((Byte/Second))
system.mem_ctrls.dram.bwTotal::cpu.data    1124583286                       # Total bandwidth to/from this memory ((Byte/Second))
system.mem_ctrls.dram.bwTotal::total       1274088984                       # Total bandwidth to/from this memory ((Byte/Second))
system.mem_ctrls.dram.readBursts               303206                       # Number of DRAM read bursts (Count)
system.mem_ctrls.dram.writeBursts                8164                       # Number of DRAM write bursts (Count)
system.mem_ctrls.dram.perBankRdBursts::0         9111                       # Per bank write bursts (Count)
system.mem_ctrls.dram.perBankRdBursts::1         5012                       # Per bank write bursts (Count)
system.mem_ctrls.dram.perBankRdBursts::2         1186                       # Per bank write bursts (Count)
system.mem_ctrls.dram.perBankRdBursts::3          435                       # Per bank write bursts (Count)
system.mem_ctrls.dram.perBankRdBursts::4         1001                       # Per bank write bursts (Count)
system.mem_ctrls.dram.perBankRdBursts::5         1925                       # Per bank write bursts (Count)
system.mem_ctrls.dram.perBankRdBursts::6         1885                       # Per bank write bursts (Count)
system.mem_ctrls.dram.perBankRdBursts::7         1824                       # Per bank write bursts (Count)
system.mem_ctrls.dram.perBankRdBursts::8        25304                       # Per bank write bursts (Count)
system.mem_ctrls.dram.perBankRdBursts::9        66082                       # Per bank write bursts (Count)
system.mem_ctrls.dram.perBankRdBursts::10        65940                       # Per bank write bursts (Count)
system.mem_ctrls.dram.perBankRdBursts::11        66022                       # Per bank write bursts (Count)
system.mem_ctrls.dram.perBankRdBursts::12        50388                       # Per bank write bursts (Count)
system.mem_ctrls.dram.perBankRdBursts::13          791                       # Per bank write bursts (Count)
system.mem_ctrls.dram.perBankRdBursts::14         5042                       # Per bank write bursts (Count)
system.mem_ctrls.dram.perBankRdBursts::15         1258                       # Per bank write bursts (Count)
system.mem_ctrls.dram.perBankWrBursts::0          506                       # Per bank write bursts (Count)
system.mem_ctrls.dram.perBankWrBursts::1          516                       # Per bank write bursts (Count)
system.mem_ctrls.dram.perBankWrBursts::2          480                       # Per bank write bursts (Count)
system.mem_ctrls.dram.perBankWrBursts::3          244                       # Per bank write bursts (Count)
system.mem_ctrls.dram.perBankWrBursts::4          440                       # Per bank write bursts (Count)
system.mem_ctrls.dram.perBankWrBursts::5          588                       # Per bank write bursts (Count)
system.mem_ctrls.dram.perBankWrBursts::6          538                       # Per bank write bursts (Count)
system.mem_ctrls.dram.perBankWrBursts::7          517                       # Per bank write bursts (Count)
system.mem_ctrls.dram.perBankWrBursts::8          530                       # Per bank write bursts (Count)
system.mem_ctrls.dram.perBankWrBursts::9          536                       # Per bank write bursts (Count)
system.mem_ctrls.dram.perBankWrBursts::10          514                       # Per bank write bursts (Count)
system.mem_ctrls.dram.perBankWrBursts::11          566                       # Per bank write bursts (Count)
system.mem_ctrls.dram.perBankWrBursts::12          534                       # Per bank write bursts (Count)
system.mem_ctrls.dram.perBankWrBursts::13          528                       # Per bank write bursts (Count)
system.mem_ctrls.dram.perBankWrBursts::14          539                       # Per bank write bursts (Count)
system.mem_ctrls.dram.perBankWrBursts::15          588                       # Per bank write bursts (Count)
system.mem_ctrls.dram.totQLat              1246458750                       # Total ticks spent queuing (Tick)
system.mem_ctrls.dram.totBusLat            1516030000                       # Total ticks spent in databus transfers (Tick)
system.mem_ctrls.dram.totMemAccLat         6931571250                       # Total ticks spent from burst creation until serviced by the DRAM (Tick)
system.mem_ctrls.dram.avgQLat                 4110.93                       # Average queueing delay per DRAM burst ((Tick/Count))
system.mem_ctrls.dram.avgBusLat               5000.00                       # Average bus latency per DRAM burst ((Tick/Count))
system.mem_ctrls.dram.avgMemAccLat           22860.93                       # Average memory access latency per DRAM burst ((Tick/Count))
system.mem_ctrls.dram.readRowHits              277499                       # Number of row buffer hits during reads (Count)
system.mem_ctrls.dram.writeRowHits               7268                       # Number of row buffer hits during writes (Count)
system.mem_ctrls.dram.readRowHitRate            91.52                       # Row buffer hit rate for reads (Ratio)
system.mem_ctrls.dram.writeRowHitRate           89.02                       # Row buffer hit rate for writes (Ratio)
system.mem_ctrls.dram.bytesPerActivate::samples        26590                       # Bytes accessed per row activation (Byte)
system.mem_ctrls.dram.bytesPerActivate::mean   749.334336                       # Bytes accessed per row activation (Byte)
system.mem_ctrls.dram.bytesPerActivate::gmean   587.664588                       # Bytes accessed per row activation (Byte)
system.mem_ctrls.dram.bytesPerActivate::stdev   360.444898                       # Bytes accessed per row activation (Byte)
system.mem_ctrls.dram.bytesPerActivate::0-127         2043      7.68%      7.68% # Bytes accessed per row activation (Byte)
system.mem_ctrls.dram.bytesPerActivate::128-255         1685      6.34%     14.02% # Bytes accessed per row activation (Byte)
system.mem_ctrls.dram.bytesPerActivate::256-383         2807     10.56%     24.58% # Bytes accessed per row activation (Byte)
system.mem_ctrls.dram.bytesPerActivate::384-511          837      3.15%     27.72% # Bytes accessed per row activation (Byte)
system.mem_ctrls.dram.bytesPerActivate::512-639          875      3.29%     31.02% # Bytes accessed per row activation (Byte)
system.mem_ctrls.dram.bytesPerActivate::640-767         1893      7.12%     38.13% # Bytes accessed per row activation (Byte)
system.mem_ctrls.dram.bytesPerActivate::768-895          537      2.02%     40.15% # Bytes accessed per row activation (Byte)
system.mem_ctrls.dram.bytesPerActivate::896-1023          632      2.38%     42.53% # Bytes accessed per row activation (Byte)
system.mem_ctrls.dram.bytesPerActivate::1024-1151        15281     57.47%    100.00% # Bytes accessed per row activation (Byte)
system.mem_ctrls.dram.bytesPerActivate::total        26590                       # Bytes accessed per row activation (Byte)
system.mem_ctrls.dram.bytesRead              19405184                       # Total bytes read (Byte)
system.mem_ctrls.dram.bytesWritten             522496                       # Total bytes written (Byte)
system.mem_ctrls.dram.avgRdBW             1096.992587                       # Average DRAM read bandwidth in MiBytes/s ((Byte/Second))
system.mem_ctrls.dram.avgWrBW               29.537171                       # Average DRAM write bandwidth in MiBytes/s ((Byte/Second))
system.mem_ctrls.dram.peakBW                 12800.00                       # Theoretical peak bandwidth in MiByte/s ((Byte/Second))
system.mem_ctrls.dram.busUtil                    8.80                       # Data bus utilization in percentage (Ratio)
system.mem_ctrls.dram.busUtilRead                8.57                       # Data bus utilization in percentage for reads (Ratio)
system.mem_ctrls.dram.busUtilWrite               0.23                       # Data bus utilization in percentage for writes (Ratio)
system.mem_ctrls.dram.pageHitRate               91.46                       # Row buffer hit rate, read and write combined (Ratio)
system.mem_ctrls.dram.power_state.pwrStateResidencyTicks::UNDEFINED  17689439500                       # Cumulative time (in ticks) in various power states (Tick)
system.mem_ctrls.dram.rank0.actEnergy        31494540                       # Energy for activate commands per rank (pJ) (Joule)
system.mem_ctrls.dram.rank0.preEnergy        16716975                       # Energy for precharge commands per rank (pJ) (Joule)
system.mem_ctrls.dram.rank0.readEnergy      159786060                       # Energy for read commands per rank (pJ) (Joule)
system.mem_ctrls.dram.rank0.writeEnergy      19956060                       # Energy for write commands per rank (pJ) (Joule)
system.mem_ctrls.dram.rank0.refreshEnergy 1395847440.000000                       # Energy for refresh commands per rank (pJ) (Joule)
system.mem_ctrls.dram.rank0.actBackEnergy   6885965370                       # Energy for active background per rank (pJ) (Joule)
system.mem_ctrls.dram.rank0.preBackEnergy    994037280                       # Energy for precharge background per rank (pJ) (Joule)
system.mem_ctrls.dram.rank0.actPowerDownEnergy            0                       # Energy for active power-down per rank (pJ) (Joule)
system.mem_ctrls.dram.rank0.prePowerDownEnergy            0                       # Energy for precharge power-down per rank (pJ) (Joule)
system.mem_ctrls.dram.rank0.selfRefreshEnergy            0                       # Energy for self refresh per rank (pJ) (Joule)
system.mem_ctrls.dram.rank0.totalEnergy    9503803725                       # Total energy per rank (pJ) (Joule)
system.mem_ctrls.dram.rank0.averagePower   537.258613                       # Core power per rank (mW) (Watt)
system.mem_ctrls.dram.rank0.totalIdleTime            0                       # Total Idle time Per DRAM Rank (Tick)
system.mem_ctrls.dram.rank0.pwrStateTime::IDLE   2524703500                       # Time in different power states (Tick)
system.mem_ctrls.dram.rank0.pwrStateTime::REF    590460000                       # Time in different power states (Tick)
system.mem_ctrls.dram.rank0.pwrStateTime::SREF            0                       # Time in different power states (Tick)
system.mem_ctrls.dram.rank0.pwrStateTime::PRE_PDN            0                       # Time in different power states (Tick)
system.mem_ctrls.dram.rank0.pwrStateTime::ACT  14574276000                       # Time in different power states (Tick)
system.mem_ctrls.dram.rank0.pwrStateTime::ACT_PDN            0                       # Time in different power states (Tick)
system.mem_ctrls.dram.rank1.actEnergy       158443740                       # Energy for activate commands per rank (pJ) (Joule)
system.mem_ctrls.dram.rank1.preEnergy        84188280                       # Energy for precharge commands per rank (pJ) (Joule)
system.mem_ctrls.dram.rank1.readEnergy     2005104780                       # Energy for read commands per rank (pJ) (Joule)
system.mem_ctrls.dram.rank1.writeEnergy      22628700                       # Energy for write commands per rank (pJ) (Joule)
system.mem_ctrls.dram.rank1.refreshEnergy 1395847440.000000                       # Energy for refresh commands per rank (pJ) (Joule)
system.mem_ctrls.dram.rank1.actBackEnergy   7471745820                       # Energy for active background per rank (pJ) (Joule)
system.mem_ctrls.dram.rank1.preBackEnergy    500748480                       # Energy for precharge background per rank (pJ) (Joule)
system.mem_ctrls.dram.rank1.actPowerDownEnergy            0                       # Energy for active power-down per rank (pJ) (Joule)
system.mem_ctrls.dram.rank1.prePowerDownEnergy            0                       # Energy for precharge power-down per rank (pJ) (Joule)
system.mem_ctrls.dram.rank1.selfRefreshEnergy            0                       # Energy for self refresh per rank (pJ) (Joule)
system.mem_ctrls.dram.rank1.totalEnergy   11638707240                       # Total energy per rank (pJ) (Joule)
system.mem_ctrls.dram.rank1.averagePower   657.946638                       # Core power per rank (mW) (Watt)
system.mem_ctrls.dram.rank1.totalIdleTime            0                       # Total Idle time Per DRAM Rank (Tick)
system.mem_ctrls.dram.rank1.pwrStateTime::IDLE   1240255750                       # Time in different power states (Tick)
system.mem_ctrls.dram.rank1.pwrStateTime::REF    590460000                       # Time in different power states (Tick)
system.mem_ctrls.dram.rank1.pwrStateTime::SREF            0                       # Time in different power states (Tick)
system.mem_ctrls.dram.rank1.pwrStateTime::PRE_PDN            0                       # Time in different power states (Tick)
system.mem_ctrls.dram.rank1.pwrStateTime::ACT  15858723750                       # Time in different power states (Tick)
system.mem_ctrls.dram.rank1.pwrStateTime::ACT_PDN            0                       # Time in different power states (Tick)
system.mem_ctrls.power_state.pwrStateResidencyTicks::UNDEFINED  17689439500                       # Cumulative time (in ticks) in various power states (Tick)
system.membus.transDist::ReadResp              330033                       # Transaction distribution (Count)
system.membus.transDist::WritebackDirty         15766                       # Transaction distribution (Count)
system.membus.transDist::WritebackClean         25078                       # Transaction distribution (Count)
system.membus.transDist::CleanEvict            296352                       # Transaction distribution (Count)
system.membus.transDist::ReadExReq               6356                       # Transaction distribution (Count)
system.membus.transDist::ReadExResp              6356                       # Transaction distribution (Count)
system.membus.transDist::ReadCleanReq           25558                       # Transaction distribution (Count)
system.membus.transDist::ReadSharedReq         304476                       # Transaction distribution (Count)
system.membus.transDist::InvalidateReq           1542                       # Transaction distribution (Count)
system.membus.pktCount_system.cpu.icache.mem_side_port::system.mem_ctrls.port        76193                       # Packet count per connected requestor and responder (Count)
system.membus.pktCount_system.cpu.dcache.mem_side_port::system.mem_ctrls.port       935324                       # Packet count per connected requestor and responder (Count)
system.membus.pktCount::total                 1011517                       # Packet count per connected requestor and responder (Count)
system.membus.pktSize_system.cpu.icache.mem_side_port::system.mem_ctrls.port      3240640                       # Cumulative packet size per connected requestor and responder (Byte)
system.membus.pktSize_system.cpu.dcache.mem_side_port::system.mem_ctrls.port     20902272                       # Cumulative packet size per connected requestor and responder (Byte)
system.membus.pktSize::total                 24142912                       # Cumulative packet size per connected requestor and responder (Byte)
system.membus.snoops                                0                       # Total snoops (Count)
system.membus.snoopTraffic                          0                       # Total snoop traffic (Byte)
system.membus.snoopFanout::samples             337932                       # Request fanout histogram (Count)
system.membus.snoopFanout::mean              0.000006                       # Request fanout histogram (Count)
system.membus.snoopFanout::stdev             0.002433                       # Request fanout histogram (Count)
system.membus.snoopFanout::underflows               0      0.00%      0.00% # Request fanout histogram (Count)
system.membus.snoopFanout::0                   337930    100.00%    100.00% # Request fanout histogram (Count)
system.membus.snoopFanout::1                        2      0.00%    100.00% # Request fanout histogram (Count)
system.membus.snoopFanout::2                        0      0.00%    100.00% # Request fanout histogram (Count)
system.membus.snoopFanout::overflows                0      0.00%    100.00% # Request fanout histogram (Count)
system.membus.snoopFanout::min_value                0                       # Request fanout histogram (Count)
system.membus.snoopFanout::max_value                1                       # Request fanout histogram (Count)
system.membus.snoopFanout::total               337932                       # Request fanout histogram (Count)
system.membus.power_state.pwrStateResidencyTicks::UNDEFINED  17689439500                       # Cumulative time (in ticks) in various power states (Tick)
system.membus.reqLayer0.occupancy           939164750                       # Layer occupancy (ticks) (Tick)
system.membus.reqLayer0.utilization               0.1                       # Layer utilization (Ratio)
system.membus.respLayer1.occupancy          128097750                       # Layer occupancy (ticks) (Tick)
system.membus.respLayer1.utilization              0.0                       # Layer utilization (Ratio)
system.membus.respLayer2.occupancy         1633286000                       # Layer occupancy (ticks) (Tick)
system.membus.respLayer2.utilization              0.1                       # Layer utilization (Ratio)
system.membus.snoop_filter.totRequests         675129                       # Total number of requests made to the snoop filter. (Count)
system.membus.snoop_filter.hitSingleRequests       337198                       # Number of requests hitting in the snoop filter with a single holder of the requested data. (Count)
system.membus.snoop_filter.hitMultiRequests            1                       # Number of requests hitting in the snoop filter with multiple (>1) holders of the requested data. (Count)
system.membus.snoop_filter.totSnoops                0                       # Total number of snoops made to the snoop filter. (Count)
system.membus.snoop_filter.hitSingleSnoops            0                       # Number of snoops hitting in the snoop filter with a single holder of the requested data. (Count)
system.membus.snoop_filter.hitMultiSnoops            0                       # Number of snoops hitting in the snoop filter with multiple (>1) holders of the requested data. (Count)
system.voltage_domain.voltage                       1                       # Voltage in Volts (Volt)
system.workload.inst.arm                            0                       # number of arm instructions executed (Count)
system.workload.inst.quiesce                        0                       # number of quiesce instructions executed (Count)

---------- End Simulation Statistics   ----------
