
---------- Begin Simulation Statistics ----------
simSeconds                                   0.016719                       # Number of seconds simulated (Second)
simTicks                                  16719229500                       # Number of ticks simulated (Tick)
finalTick                                 16719229500                       # Number of ticks from beginning of simulation (restored from checkpoints and never reset) (Tick)
simFreq                                  1000000000000                       # The number of ticks per simulated second ((Tick/Second))
hostSeconds                                     80.29                       # Real time elapsed on the host (Second)
hostTickRate                                208233376                       # The number of ticks simulated per host second (ticks/s) ((Tick/Second))
hostMemory                                     672456                       # Number of bytes of host memory used (Byte)
simInsts                                     42774967                       # Number of instructions simulated (Count)
simOps                                       47115337                       # Number of ops (including micro ops) simulated (Count)
hostInstRate                                   532750                       # Simulator instruction rate (inst/s) ((Count/Second))
hostOpRate                                     586808                       # Simulator op (including micro ops) rate (op/s) ((Count/Second))
system.clk_domain.clock                          1000                       # Clock period in ticks (Tick)
system.cpu.numCycles                         33438460                       # Number of cpu cycles simulated (Cycle)
system.cpu.numWorkItemsStarted                      0                       # Number of work items this cpu started (Count)
system.cpu.numWorkItemsCompleted                    0                       # Number of work items this cpu completed (Count)
system.cpu.instsAdded                        49977668                       # Number of instructions added to the IQ (excludes non-spec) (Count)
system.cpu.nonSpecInstsAdded                     4204                       # Number of non-speculative instructions added to the IQ (Count)
system.cpu.instsIssued                       49769385                       # Number of instructions issued (Count)
system.cpu.squashedInstsIssued                  10121                       # Number of squashed instructions issued (Count)
system.cpu.squashedInstsExamined              2866534                       # Number of squashed instructions iterated over during squash; mainly for profiling (Count)
system.cpu.squashedOperandsExamined           2031899                       # Number of squashed operands that are examined and possibly removed from graph (Count)
system.cpu.squashedNonSpecRemoved                  33                       # Number of squashed non-spec instructions that were removed (Count)
system.cpu.numIssuedDist::samples            32962017                       # Number of insts issued each cycle (Count)
system.cpu.numIssuedDist::mean               1.509901                       # Number of insts issued each cycle (Count)
system.cpu.numIssuedDist::stdev              1.814824                       # Number of insts issued each cycle (Count)
system.cpu.numIssuedDist::underflows                0      0.00%      0.00% # Number of insts issued each cycle (Count)
system.cpu.numIssuedDist::0                  14288925     43.35%     43.35% # Number of insts issued each cycle (Count)
system.cpu.numIssuedDist::1                   5466808     16.59%     59.93% # Number of insts issued each cycle (Count)
system.cpu.numIssuedDist::2                   5110409     15.50%     75.44% # Number of insts issued each cycle (Count)
system.cpu.numIssuedDist::3                   3055559      9.27%     84.71% # Number of insts issued each cycle (Count)
system.cpu.numIssuedDist::4                   2523734      7.66%     92.37% # Number of insts issued each cycle (Count)
system.cpu.numIssuedDist::5                   1196058      3.63%     95.99% # Number of insts issued each cycle (Count)
system.cpu.numIssuedDist::6                    685981      2.08%     98.07% # Number of insts issued each cycle (Count)
system.cpu.numIssuedDist::7                    352374      1.07%     99.14% # Number of insts issued each cycle (Count)
system.cpu.numIssuedDist::8                    282169      0.86%    100.00% # Number of insts issued each cycle (Count)
system.cpu.numIssuedDist::overflows                 0      0.00%    100.00% # Number of insts issued each cycle (Count)
system.cpu.numIssuedDist::min_value                 0                       # Number of insts issued each cycle (Count)
system.cpu.numIssuedDist::max_value                 8                       # Number of insts issued each cycle (Count)
system.cpu.numIssuedDist::total              32962017                       # Number of insts issued each cycle (Count)
system.cpu.statFuBusy::No_OpClass                   0      0.00%      0.00% # attempts to use FU when none available (Count)
system.cpu.statFuBusy::IntAlu                  179579     27.97%     27.97% # attempts to use FU when none available (Count)
system.cpu.statFuBusy::IntMult                  81423     12.68%     40.66% # attempts to use FU when none available (Count)
system.cpu.statFuBusy::IntDiv                       0      0.00%     40.66% # attempts to use FU when none available (Count)
system.cpu.statFuBusy::FloatAdd                     0      0.00%     40.66% # attempts to use FU when none available (Count)
system.cpu.statFuBusy::FloatCmp                     0      0.00%     40.66% # attempts to use FU when none available (Count)
system.cpu.statFuBusy::FloatCvt                     0      0.00%     40.66% # attempts to use FU when none available (Count)
system.cpu.statFuBusy::FloatMult                    0      0.00%     40.66% # attempts to use FU when none available (Count)
system.cpu.statFuBusy::FloatMultAcc                 0      0.00%     40.66% # attempts to use FU when none available (Count)
system.cpu.statFuBusy::FloatDiv                     0      0.00%     40.66% # attempts to use FU when none available (Count)
system.cpu.statFuBusy::FloatMisc                    0      0.00%     40.66% # attempts to use FU when none available (Count)
system.cpu.statFuBusy::FloatSqrt                    0      0.00%     40.66% # attempts to use FU when none available (Count)
system.cpu.statFuBusy::SimdAdd                      0      0.00%     40.66% # attempts to use FU when none available (Count)
system.cpu.statFuBusy::SimdAddAcc                   0      0.00%     40.66% # attempts to use FU when none available (Count)
system.cpu.statFuBusy::SimdAlu                      3      0.00%     40.66% # attempts to use FU when none available (Count)
system.cpu.statFuBusy::SimdCmp                   3604      0.56%     41.22% # attempts to use FU when none available (Count)
system.cpu.statFuBusy::SimdCvt                      0      0.00%     41.22% # attempts to use FU when none available (Count)
system.cpu.statFuBusy::SimdMisc                     0      0.00%     41.22% # attempts to use FU when none available (Count)
system.cpu.statFuBusy::SimdMult                     0      0.00%     41.22% # attempts to use FU when none available (Count)
system.cpu.statFuBusy::SimdMultAcc                  0      0.00%     41.22% # attempts to use FU when none available (Count)
system.cpu.statFuBusy::SimdShift                    0      0.00%     41.22% # attempts to use FU when none available (Count)
system.cpu.statFuBusy::SimdShiftAcc                 0      0.00%     41.22% # attempts to use FU when none available (Count)
system.cpu.statFuBusy::SimdDiv                      0      0.00%     41.22% # attempts to use FU when none available (Count)
system.cpu.statFuBusy::SimdSqrt                     0      0.00%     41.22% # attempts to use FU when none available (Count)
system.cpu.statFuBusy::SimdFloatAdd                 0      0.00%     41.22% # attempts to use FU when none available (Count)
system.cpu.statFuBusy::SimdFloatAlu                 0      0.00%     41.22% # attempts to use FU when none available (Count)
system.cpu.statFuBusy::SimdFloatCmp                 0      0.00%     41.22% # attempts to use FU when none available (Count)
system.cpu.statFuBusy::SimdFloatCvt                 0      0.00%     41.22% # attempts to use FU when none available (Count)
system.cpu.statFuBusy::SimdFloatDiv                 0      0.00%     41.22% # attempts to use FU when none available (Count)
system.cpu.statFuBusy::SimdFloatMisc                0      0.00%     41.22% # attempts to use FU when none available (Count)
system.cpu.statFuBusy::SimdFloatMult                0      0.00%     41.22% # attempts to use FU when none available (Count)
system.cpu.statFuBusy::SimdFloatMultAcc             0      0.00%     41.22% # attempts to use FU when none available (Count)
system.cpu.statFuBusy::SimdFloatSqrt                0      0.00%     41.22% # attempts to use FU when none available (Count)
system.cpu.statFuBusy::SimdReduceAdd                0      0.00%     41.22% # attempts to use FU when none available (Count)
system.cpu.statFuBusy::SimdReduceAlu                0      0.00%     41.22% # attempts to use FU when none available (Count)
system.cpu.statFuBusy::SimdReduceCmp                0      0.00%     41.22% # attempts to use FU when none available (Count)
system.cpu.statFuBusy::SimdFloatReduceAdd            0      0.00%     41.22% # attempts to use FU when none available (Count)
system.cpu.statFuBusy::SimdFloatReduceCmp            0      0.00%     41.22% # attempts to use FU when none available (Count)
system.cpu.statFuBusy::SimdAes                      0      0.00%     41.22% # attempts to use FU when none available (Count)
system.cpu.statFuBusy::SimdAesMix                   0      0.00%     41.22% # attempts to use FU when none available (Count)
system.cpu.statFuBusy::SimdSha1Hash                 0      0.00%     41.22% # attempts to use FU when none available (Count)
system.cpu.statFuBusy::SimdSha1Hash2                0      0.00%     41.22% # attempts to use FU when none available (Count)
system.cpu.statFuBusy::SimdSha256Hash               0      0.00%     41.22% # attempts to use FU when none available (Count)
system.cpu.statFuBusy::SimdSha256Hash2              0      0.00%     41.22% # attempts to use FU when none available (Count)
system.cpu.statFuBusy::SimdShaSigma2                0      0.00%     41.22% # attempts to use FU when none available (Count)
system.cpu.statFuBusy::SimdShaSigma3                0      0.00%     41.22% # attempts to use FU when none available (Count)
system.cpu.statFuBusy::SimdPredAlu                  0      0.00%     41.22% # attempts to use FU when none available (Count)
system.cpu.statFuBusy::MemRead                 197363     30.74%     71.96% # attempts to use FU when none available (Count)
system.cpu.statFuBusy::MemWrite                180016     28.04%    100.00% # attempts to use FU when none available (Count)
system.cpu.statFuBusy::FloatMemRead                 0      0.00%    100.00% # attempts to use FU when none available (Count)
system.cpu.statFuBusy::FloatMemWrite                0      0.00%    100.00% # attempts to use FU when none available (Count)
system.cpu.statFuBusy::IprAccess                    0      0.00%    100.00% # attempts to use FU when none available (Count)
system.cpu.statFuBusy::InstPrefetch                 0      0.00%    100.00% # attempts to use FU when none available (Count)
system.cpu.statIssuedInstType_0::No_OpClass        27823      0.06%      0.06% # Number of instructions issued per FU type, per thread (Count)
system.cpu.statIssuedInstType_0::IntAlu      31851605     64.00%     64.05% # Number of instructions issued per FU type, per thread (Count)
system.cpu.statIssuedInstType_0::IntMult       641413      1.29%     65.34% # Number of instructions issued per FU type, per thread (Count)
system.cpu.statIssuedInstType_0::IntDiv        154486      0.31%     65.65% # Number of instructions issued per FU type, per thread (Count)
system.cpu.statIssuedInstType_0::FloatAdd       278544      0.56%     66.21% # Number of instructions issued per FU type, per thread (Count)
system.cpu.statIssuedInstType_0::FloatCmp        16390      0.03%     66.25% # Number of instructions issued per FU type, per thread (Count)
system.cpu.statIssuedInstType_0::FloatCvt            0      0.00%     66.25% # Number of instructions issued per FU type, per thread (Count)
system.cpu.statIssuedInstType_0::FloatMult       262144      0.53%     66.77% # Number of instructions issued per FU type, per thread (Count)
system.cpu.statIssuedInstType_0::FloatMultAcc            0      0.00%     66.77% # Number of instructions issued per FU type, per thread (Count)
system.cpu.statIssuedInstType_0::FloatDiv            0      0.00%     66.77% # Number of instructions issued per FU type, per thread (Count)
system.cpu.statIssuedInstType_0::FloatMisc        61015      0.12%     66.90% # Number of instructions issued per FU type, per thread (Count)
system.cpu.statIssuedInstType_0::FloatSqrt            0      0.00%     66.90% # Number of instructions issued per FU type, per thread (Count)
system.cpu.statIssuedInstType_0::SimdAdd        63175      0.13%     67.02% # Number of instructions issued per FU type, per thread (Count)
system.cpu.statIssuedInstType_0::SimdAddAcc            0      0.00%     67.02% # Number of instructions issued per FU type, per thread (Count)
system.cpu.statIssuedInstType_0::SimdAlu       118766      0.24%     67.26% # Number of instructions issued per FU type, per thread (Count)
system.cpu.statIssuedInstType_0::SimdCmp       111196      0.22%     67.48% # Number of instructions issued per FU type, per thread (Count)
system.cpu.statIssuedInstType_0::SimdCvt            0      0.00%     67.48% # Number of instructions issued per FU type, per thread (Count)
system.cpu.statIssuedInstType_0::SimdMisc        76352      0.15%     67.64% # Number of instructions issued per FU type, per thread (Count)
system.cpu.statIssuedInstType_0::SimdMult            0      0.00%     67.64% # Number of instructions issued per FU type, per thread (Count)
system.cpu.statIssuedInstType_0::SimdMultAcc            0      0.00%     67.64% # Number of instructions issued per FU type, per thread (Count)
system.cpu.statIssuedInstType_0::SimdShift            0      0.00%     67.64% # Number of instructions issued per FU type, per thread (Count)
system.cpu.statIssuedInstType_0::SimdShiftAcc            0      0.00%     67.64% # Number of instructions issued per FU type, per thread (Count)
system.cpu.statIssuedInstType_0::SimdDiv            0      0.00%     67.64% # Number of instructions issued per FU type, per thread (Count)
system.cpu.statIssuedInstType_0::SimdSqrt            0      0.00%     67.64% # Number of instructions issued per FU type, per thread (Count)
system.cpu.statIssuedInstType_0::SimdFloatAdd            0      0.00%     67.64% # Number of instructions issued per FU type, per thread (Count)
system.cpu.statIssuedInstType_0::SimdFloatAlu            0      0.00%     67.64% # Number of instructions issued per FU type, per thread (Count)
system.cpu.statIssuedInstType_0::SimdFloatCmp            0      0.00%     67.64% # Number of instructions issued per FU type, per thread (Count)
system.cpu.statIssuedInstType_0::SimdFloatCvt            0      0.00%     67.64% # Number of instructions issued per FU type, per thread (Count)
system.cpu.statIssuedInstType_0::SimdFloatDiv            0      0.00%     67.64% # Number of instructions issued per FU type, per thread (Count)
system.cpu.statIssuedInstType_0::SimdFloatMisc            0      0.00%     67.64% # Number of instructions issued per FU type, per thread (Count)
system.cpu.statIssuedInstType_0::SimdFloatMult            0      0.00%     67.64% # Number of instructions issued per FU type, per thread (Count)
system.cpu.statIssuedInstType_0::SimdFloatMultAcc            0      0.00%     67.64% # Number of instructions issued per FU type, per thread (Count)
system.cpu.statIssuedInstType_0::SimdFloatSqrt            0      0.00%     67.64% # Number of instructions issued per FU type, per thread (Count)
system.cpu.statIssuedInstType_0::SimdReduceAdd            0      0.00%     67.64% # Number of instructions issued per FU type, per thread (Count)
system.cpu.statIssuedInstType_0::SimdReduceAlu            0      0.00%     67.64% # Number of instructions issued per FU type, per thread (Count)
system.cpu.statIssuedInstType_0::SimdReduceCmp            0      0.00%     67.64% # Number of instructions issued per FU type, per thread (Count)
system.cpu.statIssuedInstType_0::SimdFloatReduceAdd            0      0.00%     67.64% # Number of instructions issued per FU type, per thread (Count)
system.cpu.statIssuedInstType_0::SimdFloatReduceCmp            0      0.00%     67.64% # Number of instructions issued per FU type, per thread (Count)
system.cpu.statIssuedInstType_0::SimdAes            0      0.00%     67.64% # Number of instructions issued per FU type, per thread (Count)
system.cpu.statIssuedInstType_0::SimdAesMix            0      0.00%     67.64% # Number of instructions issued per FU type, per thread (Count)
system.cpu.statIssuedInstType_0::SimdSha1Hash            0      0.00%     67.64% # Number of instructions issued per FU type, per thread (Count)
system.cpu.statIssuedInstType_0::SimdSha1Hash2            0      0.00%     67.64% # Number of instructions issued per FU type, per thread (Count)
system.cpu.statIssuedInstType_0::SimdSha256Hash            0      0.00%     67.64% # Number of instructions issued per FU type, per thread (Count)
system.cpu.statIssuedInstType_0::SimdSha256Hash2            0      0.00%     67.64% # Number of instructions issued per FU type, per thread (Count)
system.cpu.statIssuedInstType_0::SimdShaSigma2            0      0.00%     67.64% # Number of instructions issued per FU type, per thread (Count)
system.cpu.statIssuedInstType_0::SimdShaSigma3            0      0.00%     67.64% # Number of instructions issued per FU type, per thread (Count)
system.cpu.statIssuedInstType_0::SimdPredAlu            0      0.00%     67.64% # Number of instructions issued per FU type, per thread (Count)
system.cpu.statIssuedInstType_0::MemRead     10450469     21.00%     88.64% # Number of instructions issued per FU type, per thread (Count)
system.cpu.statIssuedInstType_0::MemWrite      5656007     11.36%    100.00% # Number of instructions issued per FU type, per thread (Count)
system.cpu.statIssuedInstType_0::FloatMemRead            0      0.00%    100.00% # Number of instructions issued per FU type, per thread (Count)
system.cpu.statIssuedInstType_0::FloatMemWrite            0      0.00%    100.00% # Number of instructions issued per FU type, per thread (Count)
system.cpu.statIssuedInstType_0::IprAccess            0      0.00%    100.00% # Number of instructions issued per FU type, per thread (Count)
system.cpu.statIssuedInstType_0::InstPrefetch            0      0.00%    100.00% # Number of instructions issued per FU type, per thread (Count)
system.cpu.statIssuedInstType_0::total       49769385                       # Number of instructions issued per FU type, per thread (Count)
system.cpu.issueRate                         1.488387                       # Inst issue rate ((Count/Cycle))
system.cpu.fuBusy                              641988                       # FU busy when requested (Count)
system.cpu.fuBusyRate                        0.012899                       # FU busy rate (busy events/executed inst) ((Count/Count))
system.cpu.intInstQueueReads                127518954                       # Number of integer instruction queue reads (Count)
system.cpu.intInstQueueWrites                49990813                       # Number of integer instruction queue writes (Count)
system.cpu.intInstQueueWakeupAccesses        45944270                       # Number of integer instruction queue wakeup accesses (Count)
system.cpu.fpInstQueueReads                         0                       # Number of floating instruction queue reads (Count)
system.cpu.fpInstQueueWrites                        0                       # Number of floating instruction queue writes (Count)
system.cpu.fpInstQueueWakeupAccesses                0                       # Number of floating instruction queue wakeup accesses (Count)
system.cpu.vecInstQueueReads                  5633942                       # Number of vector instruction queue reads (Count)
system.cpu.vecInstQueueWrites                 2858999                       # Number of vector instruction queue writes (Count)
system.cpu.vecInstQueueWakeupAccesses         2794427                       # Number of vector instruction queue wakeup accesses (Count)
system.cpu.intAluAccesses                    47585062                       # Number of integer alu accesses (Count)
system.cpu.fpAluAccesses                            0                       # Number of floating point alu accesses (Count)
system.cpu.vecAluAccesses                     2798488                       # Number of vector alu accesses (Count)
system.cpu.numInsts                          49592121                       # Number of executed instructions (Count)
system.cpu.numLoadInsts                      10399086                       # Number of load instructions executed (Count)
system.cpu.numSquashedInsts                    177264                       # Number of squashed instructions skipped in execute (Count)
system.cpu.numSwp                                   0                       # Number of swp insts executed (Count)
system.cpu.numNop                               65705                       # Number of nop insts executed (Count)
system.cpu.numRefs                           16044644                       # Number of memory reference insts executed (Count)
system.cpu.numBranches                        6891196                       # Number of branches executed (Count)
system.cpu.numStoreInsts                      5645558                       # Number of stores executed (Count)
system.cpu.numRate                           1.483086                       # Inst execution rate ((Count/Cycle))
system.cpu.timesIdled                           19284                       # Number of times that the entire CPU went into an idle state and unscheduled itself (Count)
system.cpu.idleCycles                          476443                       # Total number of cycles that the CPU has spent unscheduled due to idling (Cycle)
system.cpu.committedInsts                    42774967                       # Number of Instructions Simulated (Count)
system.cpu.committedOps                      47115337                       # Number of Ops (including micro ops) Simulated (Count)
system.cpu.cpi                               0.781730                       # CPI: Cycles Per Instruction ((Cycle/Count))
system.cpu.totalCpi                          0.781730                       # CPI: Total CPI of All Threads ((Cycle/Count))
system.cpu.ipc                               1.279215                       # IPC: Instructions Per Cycle ((Count/Cycle))
system.cpu.totalIpc                          1.279215                       # IPC: Total IPC of All Threads ((Count/Cycle))
system.cpu.intRegfileReads                   58900881                       # Number of integer regfile reads (Count)
system.cpu.intRegfileWrites                  35679656                       # Number of integer regfile writes (Count)
system.cpu.vecRegfileReads                    2401626                       # number of vector regfile reads (Count)
system.cpu.vecRegfileWrites                   2136821                       # number of vector regfile writes (Count)
system.cpu.ccRegfileReads                    14575125                       # number of cc regfile reads (Count)
system.cpu.ccRegfileWrites                   14436364                       # number of cc regfile writes (Count)
system.cpu.miscRegfileReads                  96332284                       # number of misc regfile reads (Count)
system.cpu.miscRegfileWrites                   561209                       # number of misc regfile writes (Count)
system.cpu.MemDepUnit__0.insertedLoads        9828051                       # Number of loads inserted to the mem dependence unit. (Count)
system.cpu.MemDepUnit__0.insertedStores       5728519                       # Number of stores inserted to the mem dependence unit. (Count)
system.cpu.MemDepUnit__0.conflictingLoads      2342830                       # Number of conflicting loads. (Count)
system.cpu.MemDepUnit__0.conflictingStores       955624                       # Number of conflicting stores. (Count)
system.cpu.MemDepUnit__1.insertedLoads              0                       # Number of loads inserted to the mem dependence unit. (Count)
system.cpu.MemDepUnit__1.insertedStores             0                       # Number of stores inserted to the mem dependence unit. (Count)
system.cpu.MemDepUnit__1.conflictingLoads            0                       # Number of conflicting loads. (Count)
system.cpu.MemDepUnit__1.conflictingStores            0                       # Number of conflicting stores. (Count)
system.cpu.MemDepUnit__2.insertedLoads              0                       # Number of loads inserted to the mem dependence unit. (Count)
system.cpu.MemDepUnit__2.insertedStores             0                       # Number of stores inserted to the mem dependence unit. (Count)
system.cpu.MemDepUnit__2.conflictingLoads            0                       # Number of conflicting loads. (Count)
system.cpu.MemDepUnit__2.conflictingStores            0                       # Number of conflicting stores. (Count)
system.cpu.MemDepUnit__3.insertedLoads              0                       # Number of loads inserted to the mem dependence unit. (Count)
system.cpu.MemDepUnit__3.insertedStores             0                       # Number of stores inserted to the mem dependence unit. (Count)
system.cpu.MemDepUnit__3.conflictingLoads            0                       # Number of conflicting loads. (Count)
system.cpu.MemDepUnit__3.conflictingStores            0                       # Number of conflicting stores. (Count)
system.cpu.branchPred.lookups                 7513132                       # Number of BP lookups (Count)
system.cpu.branchPred.condPredicted           5686655                       # Number of conditional branches predicted (Count)
system.cpu.branchPred.condIncorrect            142818                       # Number of conditional branches incorrect (Count)
system.cpu.branchPred.BTBLookups              4198902                       # Number of BTB lookups (Count)
system.cpu.branchPred.BTBHits                 4139349                       # Number of BTB hits (Count)
system.cpu.branchPred.BTBHitRatio            0.985817                       # BTB Hit Ratio (Ratio)
system.cpu.branchPred.RASUsed                  581583                       # Number of times the RAS was used to get a target. (Count)
system.cpu.branchPred.RASIncorrect                  3                       # Number of incorrect RAS predictions. (Count)
system.cpu.branchPred.indirectLookups           76381                       # Number of indirect predictor lookups. (Count)
system.cpu.branchPred.indirectHits              75530                       # Number of indirect target hits. (Count)
system.cpu.branchPred.indirectMisses              851                       # Number of indirect misses. (Count)
system.cpu.branchPred.indirectMispredicted          107                       # Number of mispredicted indirect branches. (Count)
system.cpu.commit.commitSquashedInsts         2891387                       # The number of squashed insts skipped by commit (Count)
system.cpu.commit.commitNonSpecStalls            4171                       # The number of times commit has been forced to stall to communicate backwards (Count)
system.cpu.commit.branchMispredicts            117814                       # The number of times a branch was mispredicted (Count)
system.cpu.commit.numCommittedDist::samples     32535991                       # Number of insts commited each cycle (Count)
system.cpu.commit.numCommittedDist::mean     1.449816                       # Number of insts commited each cycle (Count)
system.cpu.commit.numCommittedDist::stdev     2.578713                       # Number of insts commited each cycle (Count)
system.cpu.commit.numCommittedDist::underflows            0      0.00%      0.00% # Number of insts commited each cycle (Count)
system.cpu.commit.numCommittedDist::0        19718464     60.61%     60.61% # Number of insts commited each cycle (Count)
system.cpu.commit.numCommittedDist::1         4794868     14.74%     75.34% # Number of insts commited each cycle (Count)
system.cpu.commit.numCommittedDist::2         2226240      6.84%     82.18% # Number of insts commited each cycle (Count)
system.cpu.commit.numCommittedDist::3          911772      2.80%     84.99% # Number of insts commited each cycle (Count)
system.cpu.commit.numCommittedDist::4          568118      1.75%     86.73% # Number of insts commited each cycle (Count)
system.cpu.commit.numCommittedDist::5          226741      0.70%     87.43% # Number of insts commited each cycle (Count)
system.cpu.commit.numCommittedDist::6          187346      0.58%     88.01% # Number of insts commited each cycle (Count)
system.cpu.commit.numCommittedDist::7          561258      1.73%     89.73% # Number of insts commited each cycle (Count)
system.cpu.commit.numCommittedDist::8         3341184     10.27%    100.00% # Number of insts commited each cycle (Count)
system.cpu.commit.numCommittedDist::overflows            0      0.00%    100.00% # Number of insts commited each cycle (Count)
system.cpu.commit.numCommittedDist::min_value            0                       # Number of insts commited each cycle (Count)
system.cpu.commit.numCommittedDist::max_value            8                       # Number of insts commited each cycle (Count)
system.cpu.commit.numCommittedDist::total     32535991                       # Number of insts commited each cycle (Count)
system.cpu.commit.instsCommitted             42830825                       # Number of instructions committed (Count)
system.cpu.commit.opsCommitted               47171195                       # Number of ops (including micro ops) committed (Count)
system.cpu.commit.memRefs                    14762161                       # Number of memory references committed (Count)
system.cpu.commit.loads                       9356228                       # Number of loads committed (Count)
system.cpu.commit.amos                             20                       # Number of atomic instructions committed (Count)
system.cpu.commit.membars                          24                       # Number of memory barriers committed (Count)
system.cpu.commit.branches                    6624718                       # Number of branches committed (Count)
system.cpu.commit.vectorInstructions          2785221                       # Number of committed Vector instructions. (Count)
system.cpu.commit.floating                          0                       # Number of committed floating point instructions. (Count)
system.cpu.commit.integer                    41972714                       # Number of committed integer instructions. (Count)
system.cpu.commit.functionCalls                508101                       # Number of function calls committed. (Count)
system.cpu.commit.committedInstType_0::No_OpClass        27678      0.06%      0.06% # Class of committed instruction (Count)
system.cpu.commit.committedInstType_0::IntAlu     30612660     64.90%     64.96% # Class of committed instruction (Count)
system.cpu.commit.committedInstType_0::IntMult       641224      1.36%     66.31% # Class of committed instruction (Count)
system.cpu.commit.committedInstType_0::IntDiv       153813      0.33%     66.64% # Class of committed instruction (Count)
system.cpu.commit.committedInstType_0::FloatAdd       278528      0.59%     67.23% # Class of committed instruction (Count)
system.cpu.commit.committedInstType_0::FloatCmp        16384      0.03%     67.27% # Class of committed instruction (Count)
system.cpu.commit.committedInstType_0::FloatCvt            0      0.00%     67.27% # Class of committed instruction (Count)
system.cpu.commit.committedInstType_0::FloatMult       262144      0.56%     67.82% # Class of committed instruction (Count)
system.cpu.commit.committedInstType_0::FloatMultAcc            0      0.00%     67.82% # Class of committed instruction (Count)
system.cpu.commit.committedInstType_0::FloatDiv            0      0.00%     67.82% # Class of committed instruction (Count)
system.cpu.commit.committedInstType_0::FloatMisc        49152      0.10%     67.93% # Class of committed instruction (Count)
system.cpu.commit.committedInstType_0::FloatSqrt            0      0.00%     67.93% # Class of committed instruction (Count)
system.cpu.commit.committedInstType_0::SimdAdd        62740      0.13%     68.06% # Class of committed instruction (Count)
system.cpu.commit.committedInstType_0::SimdAddAcc            0      0.00%     68.06% # Class of committed instruction (Count)
system.cpu.commit.committedInstType_0::SimdAlu       118041      0.25%     68.31% # Class of committed instruction (Count)
system.cpu.commit.committedInstType_0::SimdCmp       110616      0.23%     68.54% # Class of committed instruction (Count)
system.cpu.commit.committedInstType_0::SimdCvt            0      0.00%     68.54% # Class of committed instruction (Count)
system.cpu.commit.committedInstType_0::SimdMisc        76054      0.16%     68.71% # Class of committed instruction (Count)
system.cpu.commit.committedInstType_0::SimdMult            0      0.00%     68.71% # Class of committed instruction (Count)
system.cpu.commit.committedInstType_0::SimdMultAcc            0      0.00%     68.71% # Class of committed instruction (Count)
system.cpu.commit.committedInstType_0::SimdShift            0      0.00%     68.71% # Class of committed instruction (Count)
system.cpu.commit.committedInstType_0::SimdShiftAcc            0      0.00%     68.71% # Class of committed instruction (Count)
system.cpu.commit.committedInstType_0::SimdDiv            0      0.00%     68.71% # Class of committed instruction (Count)
system.cpu.commit.committedInstType_0::SimdSqrt            0      0.00%     68.71% # Class of committed instruction (Count)
system.cpu.commit.committedInstType_0::SimdFloatAdd            0      0.00%     68.71% # Class of committed instruction (Count)
system.cpu.commit.committedInstType_0::SimdFloatAlu            0      0.00%     68.71% # Class of committed instruction (Count)
system.cpu.commit.committedInstType_0::SimdFloatCmp            0      0.00%     68.71% # Class of committed instruction (Count)
system.cpu.commit.committedInstType_0::SimdFloatCvt            0      0.00%     68.71% # Class of committed instruction (Count)
system.cpu.commit.committedInstType_0::SimdFloatDiv            0      0.00%     68.71% # Class of committed instruction (Count)
system.cpu.commit.committedInstType_0::SimdFloatMisc            0      0.00%     68.71% # Class of committed instruction (Count)
system.cpu.commit.committedInstType_0::SimdFloatMult            0      0.00%     68.71% # Class of committed instruction (Count)
system.cpu.commit.committedInstType_0::SimdFloatMultAcc            0      0.00%     68.71% # Class of committed instruction (Count)
system.cpu.commit.committedInstType_0::SimdFloatSqrt            0      0.00%     68.71% # Class of committed instruction (Count)
system.cpu.commit.committedInstType_0::SimdReduceAdd            0      0.00%     68.71% # Class of committed instruction (Count)
system.cpu.commit.committedInstType_0::SimdReduceAlu            0      0.00%     68.71% # Class of committed instruction (Count)
system.cpu.commit.committedInstType_0::SimdReduceCmp            0      0.00%     68.71% # Class of committed instruction (Count)
system.cpu.commit.committedInstType_0::SimdFloatReduceAdd            0      0.00%     68.71% # Class of committed instruction (Count)
system.cpu.commit.committedInstType_0::SimdFloatReduceCmp            0      0.00%     68.71% # Class of committed instruction (Count)
system.cpu.commit.committedInstType_0::SimdAes            0      0.00%     68.71% # Class of committed instruction (Count)
system.cpu.commit.committedInstType_0::SimdAesMix            0      0.00%     68.71% # Class of committed instruction (Count)
system.cpu.commit.committedInstType_0::SimdSha1Hash            0      0.00%     68.71% # Class of committed instruction (Count)
system.cpu.commit.committedInstType_0::SimdSha1Hash2            0      0.00%     68.71% # Class of committed instruction (Count)
system.cpu.commit.committedInstType_0::SimdSha256Hash            0      0.00%     68.71% # Class of committed instruction (Count)
system.cpu.commit.committedInstType_0::SimdSha256Hash2            0      0.00%     68.71% # Class of committed instruction (Count)
system.cpu.commit.committedInstType_0::SimdShaSigma2            0      0.00%     68.71% # Class of committed instruction (Count)
system.cpu.commit.committedInstType_0::SimdShaSigma3            0      0.00%     68.71% # Class of committed instruction (Count)
system.cpu.commit.committedInstType_0::SimdPredAlu            0      0.00%     68.71% # Class of committed instruction (Count)
system.cpu.commit.committedInstType_0::MemRead      9356228     19.83%     88.54% # Class of committed instruction (Count)
system.cpu.commit.committedInstType_0::MemWrite      5405933     11.46%    100.00% # Class of committed instruction (Count)
system.cpu.commit.committedInstType_0::FloatMemRead            0      0.00%    100.00% # Class of committed instruction (Count)
system.cpu.commit.committedInstType_0::FloatMemWrite            0      0.00%    100.00% # Class of committed instruction (Count)
system.cpu.commit.committedInstType_0::IprAccess            0      0.00%    100.00% # Class of committed instruction (Count)
system.cpu.commit.committedInstType_0::InstPrefetch            0      0.00%    100.00% # Class of committed instruction (Count)
system.cpu.commit.committedInstType_0::total     47171195                       # Class of committed instruction (Count)
system.cpu.commit.commitEligibleSamples       3341184                       # number cycles where commit BW limit reached (Cycle)
system.cpu.dcache.demandHits::cpu.data       12051052                       # number of demand (read+write) hits (Count)
system.cpu.dcache.demandHits::total          12051052                       # number of demand (read+write) hits (Count)
system.cpu.dcache.overallHits::cpu.data      12076599                       # number of overall hits (Count)
system.cpu.dcache.overallHits::total         12076599                       # number of overall hits (Count)
system.cpu.dcache.demandMisses::cpu.data       392085                       # number of demand (read+write) misses (Count)
system.cpu.dcache.demandMisses::total          392085                       # number of demand (read+write) misses (Count)
system.cpu.dcache.overallMisses::cpu.data       396376                       # number of overall misses (Count)
system.cpu.dcache.overallMisses::total         396376                       # number of overall misses (Count)
system.cpu.dcache.demandMissLatency::cpu.data  20721511854                       # number of demand (read+write) miss ticks (Tick)
system.cpu.dcache.demandMissLatency::total  20721511854                       # number of demand (read+write) miss ticks (Tick)
system.cpu.dcache.overallMissLatency::cpu.data  20721511854                       # number of overall miss ticks (Tick)
system.cpu.dcache.overallMissLatency::total  20721511854                       # number of overall miss ticks (Tick)
system.cpu.dcache.demandAccesses::cpu.data     12443137                       # number of demand (read+write) accesses (Count)
system.cpu.dcache.demandAccesses::total      12443137                       # number of demand (read+write) accesses (Count)
system.cpu.dcache.overallAccesses::cpu.data     12472975                       # number of overall (read+write) accesses (Count)
system.cpu.dcache.overallAccesses::total     12472975                       # number of overall (read+write) accesses (Count)
system.cpu.dcache.demandMissRate::cpu.data     0.031510                       # miss rate for demand accesses (Ratio)
system.cpu.dcache.demandMissRate::total      0.031510                       # miss rate for demand accesses (Ratio)
system.cpu.dcache.overallMissRate::cpu.data     0.031779                       # miss rate for overall accesses (Ratio)
system.cpu.dcache.overallMissRate::total     0.031779                       # miss rate for overall accesses (Ratio)
system.cpu.dcache.demandAvgMissLatency::cpu.data 52849.539906                       # average overall miss latency ((Cycle/Count))
system.cpu.dcache.demandAvgMissLatency::total 52849.539906                       # average overall miss latency ((Cycle/Count))
system.cpu.dcache.overallAvgMissLatency::cpu.data 52277.412997                       # average overall miss latency ((Cycle/Count))
system.cpu.dcache.overallAvgMissLatency::total 52277.412997                       # average overall miss latency ((Cycle/Count))
system.cpu.dcache.blockedCycles::no_mshrs       501831                       # number of cycles access was blocked (Cycle)
system.cpu.dcache.blockedCycles::no_targets            0                       # number of cycles access was blocked (Cycle)
system.cpu.dcache.blockedCauses::no_mshrs        19740                       # number of times access was blocked (Count)
system.cpu.dcache.blockedCauses::no_targets            0                       # number of times access was blocked (Count)
system.cpu.dcache.avgBlocked::no_mshrs      25.422036                       # average number of cycles each access was blocked ((Cycle/Count))
system.cpu.dcache.avgBlocked::no_targets          nan                       # average number of cycles each access was blocked ((Cycle/Count))
system.cpu.dcache.writebacks::writebacks        25558                       # number of writebacks (Count)
system.cpu.dcache.writebacks::total             25558                       # number of writebacks (Count)
system.cpu.dcache.demandMshrHits::cpu.data        55433                       # number of demand (read+write) MSHR hits (Count)
system.cpu.dcache.demandMshrHits::total         55433                       # number of demand (read+write) MSHR hits (Count)
system.cpu.dcache.overallMshrHits::cpu.data        55433                       # number of overall MSHR hits (Count)
system.cpu.dcache.overallMshrHits::total        55433                       # number of overall MSHR hits (Count)
system.cpu.dcache.demandMshrMisses::cpu.data       336652                       # number of demand (read+write) MSHR misses (Count)
system.cpu.dcache.demandMshrMisses::total       336652                       # number of demand (read+write) MSHR misses (Count)
system.cpu.dcache.overallMshrMisses::cpu.data       340879                       # number of overall MSHR misses (Count)
system.cpu.dcache.overallMshrMisses::total       340879                       # number of overall MSHR misses (Count)
system.cpu.dcache.demandMshrMissLatency::cpu.data  17789818387                       # number of demand (read+write) MSHR miss ticks (Tick)
system.cpu.dcache.demandMshrMissLatency::total  17789818387                       # number of demand (read+write) MSHR miss ticks (Tick)
system.cpu.dcache.overallMshrMissLatency::cpu.data  18043501887                       # number of overall MSHR miss ticks (Tick)
system.cpu.dcache.overallMshrMissLatency::total  18043501887                       # number of overall MSHR miss ticks (Tick)
system.cpu.dcache.demandMshrMissRate::cpu.data     0.027055                       # mshr miss ratio for demand accesses (Ratio)
system.cpu.dcache.demandMshrMissRate::total     0.027055                       # mshr miss ratio for demand accesses (Ratio)
system.cpu.dcache.overallMshrMissRate::cpu.data     0.027329                       # mshr miss ratio for overall accesses (Ratio)
system.cpu.dcache.overallMshrMissRate::total     0.027329                       # mshr miss ratio for overall accesses (Ratio)
system.cpu.dcache.demandAvgMshrMissLatency::cpu.data 52843.346800                       # average overall mshr miss latency ((Cycle/Count))
system.cpu.dcache.demandAvgMshrMissLatency::total 52843.346800                       # average overall mshr miss latency ((Cycle/Count))
system.cpu.dcache.overallAvgMshrMissLatency::cpu.data 52932.277691                       # average overall mshr miss latency ((Cycle/Count))
system.cpu.dcache.overallAvgMshrMissLatency::total 52932.277691                       # average overall mshr miss latency ((Cycle/Count))
system.cpu.dcache.replacements                 340753                       # number of replacements (Count)
system.cpu.dcache.LoadLockedReq.hits::cpu.data            7                       # number of LoadLockedReq hits (Count)
system.cpu.dcache.LoadLockedReq.hits::total            7                       # number of LoadLockedReq hits (Count)
system.cpu.dcache.LoadLockedReq.misses::cpu.data            1                       # number of LoadLockedReq misses (Count)
system.cpu.dcache.LoadLockedReq.misses::total            1                       # number of LoadLockedReq misses (Count)
system.cpu.dcache.LoadLockedReq.missLatency::cpu.data        51000                       # number of LoadLockedReq miss ticks (Tick)
system.cpu.dcache.LoadLockedReq.missLatency::total        51000                       # number of LoadLockedReq miss ticks (Tick)
system.cpu.dcache.LoadLockedReq.accesses::cpu.data            8                       # number of LoadLockedReq accesses(hits+misses) (Count)
system.cpu.dcache.LoadLockedReq.accesses::total            8                       # number of LoadLockedReq accesses(hits+misses) (Count)
system.cpu.dcache.LoadLockedReq.missRate::cpu.data     0.125000                       # miss rate for LoadLockedReq accesses (Ratio)
system.cpu.dcache.LoadLockedReq.missRate::total     0.125000                       # miss rate for LoadLockedReq accesses (Ratio)
system.cpu.dcache.LoadLockedReq.avgMissLatency::cpu.data        51000                       # average LoadLockedReq miss latency ((Tick/Count))
system.cpu.dcache.LoadLockedReq.avgMissLatency::total        51000                       # average LoadLockedReq miss latency ((Tick/Count))
system.cpu.dcache.LoadLockedReq.mshrMisses::cpu.data            1                       # number of LoadLockedReq MSHR misses (Count)
system.cpu.dcache.LoadLockedReq.mshrMisses::total            1                       # number of LoadLockedReq MSHR misses (Count)
system.cpu.dcache.LoadLockedReq.mshrMissLatency::cpu.data        50000                       # number of LoadLockedReq MSHR miss ticks (Tick)
system.cpu.dcache.LoadLockedReq.mshrMissLatency::total        50000                       # number of LoadLockedReq MSHR miss ticks (Tick)
system.cpu.dcache.LoadLockedReq.mshrMissRate::cpu.data     0.125000                       # mshr miss rate for LoadLockedReq accesses (Ratio)
system.cpu.dcache.LoadLockedReq.mshrMissRate::total     0.125000                       # mshr miss rate for LoadLockedReq accesses (Ratio)
system.cpu.dcache.LoadLockedReq.avgMshrMissLatency::cpu.data        50000                       # average LoadLockedReq mshr miss latency ((Tick/Count))
system.cpu.dcache.LoadLockedReq.avgMshrMissLatency::total        50000                       # average LoadLockedReq mshr miss latency ((Tick/Count))
system.cpu.dcache.ReadReq.hits::cpu.data      6669047                       # number of ReadReq hits (Count)
system.cpu.dcache.ReadReq.hits::total         6669047                       # number of ReadReq hits (Count)
system.cpu.dcache.ReadReq.misses::cpu.data       368181                       # number of ReadReq misses (Count)
system.cpu.dcache.ReadReq.misses::total        368181                       # number of ReadReq misses (Count)
system.cpu.dcache.ReadReq.missLatency::cpu.data  20047960500                       # number of ReadReq miss ticks (Tick)
system.cpu.dcache.ReadReq.missLatency::total  20047960500                       # number of ReadReq miss ticks (Tick)
system.cpu.dcache.ReadReq.accesses::cpu.data      7037228                       # number of ReadReq accesses(hits+misses) (Count)
system.cpu.dcache.ReadReq.accesses::total      7037228                       # number of ReadReq accesses(hits+misses) (Count)
system.cpu.dcache.ReadReq.missRate::cpu.data     0.052319                       # miss rate for ReadReq accesses (Ratio)
system.cpu.dcache.ReadReq.missRate::total     0.052319                       # miss rate for ReadReq accesses (Ratio)
system.cpu.dcache.ReadReq.avgMissLatency::cpu.data 54451.371744                       # average ReadReq miss latency ((Tick/Count))
system.cpu.dcache.ReadReq.avgMissLatency::total 54451.371744                       # average ReadReq miss latency ((Tick/Count))
system.cpu.dcache.ReadReq.mshrHits::cpu.data        48987                       # number of ReadReq MSHR hits (Count)
system.cpu.dcache.ReadReq.mshrHits::total        48987                       # number of ReadReq MSHR hits (Count)
system.cpu.dcache.ReadReq.mshrMisses::cpu.data       319194                       # number of ReadReq MSHR misses (Count)
system.cpu.dcache.ReadReq.mshrMisses::total       319194                       # number of ReadReq MSHR misses (Count)
system.cpu.dcache.ReadReq.mshrMissLatency::cpu.data  17308450000                       # number of ReadReq MSHR miss ticks (Tick)
system.cpu.dcache.ReadReq.mshrMissLatency::total  17308450000                       # number of ReadReq MSHR miss ticks (Tick)
system.cpu.dcache.ReadReq.mshrMissRate::cpu.data     0.045358                       # mshr miss rate for ReadReq accesses (Ratio)
system.cpu.dcache.ReadReq.mshrMissRate::total     0.045358                       # mshr miss rate for ReadReq accesses (Ratio)
system.cpu.dcache.ReadReq.avgMshrMissLatency::cpu.data 54225.486695                       # average ReadReq mshr miss latency ((Tick/Count))
system.cpu.dcache.ReadReq.avgMshrMissLatency::total 54225.486695                       # average ReadReq mshr miss latency ((Tick/Count))
system.cpu.dcache.SoftPFReq.hits::cpu.data        25547                       # number of SoftPFReq hits (Count)
system.cpu.dcache.SoftPFReq.hits::total         25547                       # number of SoftPFReq hits (Count)
system.cpu.dcache.SoftPFReq.misses::cpu.data         4291                       # number of SoftPFReq misses (Count)
system.cpu.dcache.SoftPFReq.misses::total         4291                       # number of SoftPFReq misses (Count)
system.cpu.dcache.SoftPFReq.accesses::cpu.data        29838                       # number of SoftPFReq accesses(hits+misses) (Count)
system.cpu.dcache.SoftPFReq.accesses::total        29838                       # number of SoftPFReq accesses(hits+misses) (Count)
system.cpu.dcache.SoftPFReq.missRate::cpu.data     0.143810                       # miss rate for SoftPFReq accesses (Ratio)
system.cpu.dcache.SoftPFReq.missRate::total     0.143810                       # miss rate for SoftPFReq accesses (Ratio)
system.cpu.dcache.SoftPFReq.mshrMisses::cpu.data         4227                       # number of SoftPFReq MSHR misses (Count)
system.cpu.dcache.SoftPFReq.mshrMisses::total         4227                       # number of SoftPFReq MSHR misses (Count)
system.cpu.dcache.SoftPFReq.mshrMissLatency::cpu.data    253683500                       # number of SoftPFReq MSHR miss ticks (Tick)
system.cpu.dcache.SoftPFReq.mshrMissLatency::total    253683500                       # number of SoftPFReq MSHR miss ticks (Tick)
system.cpu.dcache.SoftPFReq.mshrMissRate::cpu.data     0.141665                       # mshr miss rate for SoftPFReq accesses (Ratio)
system.cpu.dcache.SoftPFReq.mshrMissRate::total     0.141665                       # mshr miss rate for SoftPFReq accesses (Ratio)
system.cpu.dcache.SoftPFReq.avgMshrMissLatency::cpu.data 60015.022475                       # average SoftPFReq mshr miss latency ((Tick/Count))
system.cpu.dcache.SoftPFReq.avgMshrMissLatency::total 60015.022475                       # average SoftPFReq mshr miss latency ((Tick/Count))
system.cpu.dcache.StoreCondReq.hits::cpu.data            4                       # number of StoreCondReq hits (Count)
system.cpu.dcache.StoreCondReq.hits::total            4                       # number of StoreCondReq hits (Count)
system.cpu.dcache.StoreCondReq.accesses::cpu.data            4                       # number of StoreCondReq accesses(hits+misses) (Count)
system.cpu.dcache.StoreCondReq.accesses::total            4                       # number of StoreCondReq accesses(hits+misses) (Count)
system.cpu.dcache.SwapReq.hits::cpu.data           19                       # number of SwapReq hits (Count)
system.cpu.dcache.SwapReq.hits::total              19                       # number of SwapReq hits (Count)
system.cpu.dcache.SwapReq.misses::cpu.data            1                       # number of SwapReq misses (Count)
system.cpu.dcache.SwapReq.misses::total             1                       # number of SwapReq misses (Count)
system.cpu.dcache.SwapReq.missLatency::cpu.data        51000                       # number of SwapReq miss ticks (Tick)
system.cpu.dcache.SwapReq.missLatency::total        51000                       # number of SwapReq miss ticks (Tick)
system.cpu.dcache.SwapReq.accesses::cpu.data           20                       # number of SwapReq accesses(hits+misses) (Count)
system.cpu.dcache.SwapReq.accesses::total           20                       # number of SwapReq accesses(hits+misses) (Count)
system.cpu.dcache.SwapReq.missRate::cpu.data     0.050000                       # miss rate for SwapReq accesses (Ratio)
system.cpu.dcache.SwapReq.missRate::total     0.050000                       # miss rate for SwapReq accesses (Ratio)
system.cpu.dcache.SwapReq.avgMissLatency::cpu.data        51000                       # average SwapReq miss latency ((Tick/Count))
system.cpu.dcache.SwapReq.avgMissLatency::total        51000                       # average SwapReq miss latency ((Tick/Count))
system.cpu.dcache.SwapReq.mshrMisses::cpu.data            1                       # number of SwapReq MSHR misses (Count)
system.cpu.dcache.SwapReq.mshrMisses::total            1                       # number of SwapReq MSHR misses (Count)
system.cpu.dcache.SwapReq.mshrMissLatency::cpu.data        50000                       # number of SwapReq MSHR miss ticks (Tick)
system.cpu.dcache.SwapReq.mshrMissLatency::total        50000                       # number of SwapReq MSHR miss ticks (Tick)
system.cpu.dcache.SwapReq.mshrMissRate::cpu.data     0.050000                       # mshr miss rate for SwapReq accesses (Ratio)
system.cpu.dcache.SwapReq.mshrMissRate::total     0.050000                       # mshr miss rate for SwapReq accesses (Ratio)
system.cpu.dcache.SwapReq.avgMshrMissLatency::cpu.data        50000                       # average SwapReq mshr miss latency ((Tick/Count))
system.cpu.dcache.SwapReq.avgMshrMissLatency::total        50000                       # average SwapReq mshr miss latency ((Tick/Count))
system.cpu.dcache.WriteLineReq.misses::cpu.data         1540                       # number of WriteLineReq misses (Count)
system.cpu.dcache.WriteLineReq.misses::total         1540                       # number of WriteLineReq misses (Count)
system.cpu.dcache.WriteLineReq.missLatency::cpu.data     30100888                       # number of WriteLineReq miss ticks (Tick)
system.cpu.dcache.WriteLineReq.missLatency::total     30100888                       # number of WriteLineReq miss ticks (Tick)
system.cpu.dcache.WriteLineReq.accesses::cpu.data         1540                       # number of WriteLineReq accesses(hits+misses) (Count)
system.cpu.dcache.WriteLineReq.accesses::total         1540                       # number of WriteLineReq accesses(hits+misses) (Count)
system.cpu.dcache.WriteLineReq.missRate::cpu.data            1                       # miss rate for WriteLineReq accesses (Ratio)
system.cpu.dcache.WriteLineReq.missRate::total            1                       # miss rate for WriteLineReq accesses (Ratio)
system.cpu.dcache.WriteLineReq.avgMissLatency::cpu.data 19546.031169                       # average WriteLineReq miss latency ((Tick/Count))
system.cpu.dcache.WriteLineReq.avgMissLatency::total 19546.031169                       # average WriteLineReq miss latency ((Tick/Count))
system.cpu.dcache.WriteLineReq.mshrMisses::cpu.data         1540                       # number of WriteLineReq MSHR misses (Count)
system.cpu.dcache.WriteLineReq.mshrMisses::total         1540                       # number of WriteLineReq MSHR misses (Count)
system.cpu.dcache.WriteLineReq.mshrMissLatency::cpu.data     28560888                       # number of WriteLineReq MSHR miss ticks (Tick)
system.cpu.dcache.WriteLineReq.mshrMissLatency::total     28560888                       # number of WriteLineReq MSHR miss ticks (Tick)
system.cpu.dcache.WriteLineReq.mshrMissRate::cpu.data            1                       # mshr miss rate for WriteLineReq accesses (Ratio)
system.cpu.dcache.WriteLineReq.mshrMissRate::total            1                       # mshr miss rate for WriteLineReq accesses (Ratio)
system.cpu.dcache.WriteLineReq.avgMshrMissLatency::cpu.data 18546.031169                       # average WriteLineReq mshr miss latency ((Tick/Count))
system.cpu.dcache.WriteLineReq.avgMshrMissLatency::total 18546.031169                       # average WriteLineReq mshr miss latency ((Tick/Count))
system.cpu.dcache.WriteReq.hits::cpu.data      5382005                       # number of WriteReq hits (Count)
system.cpu.dcache.WriteReq.hits::total        5382005                       # number of WriteReq hits (Count)
system.cpu.dcache.WriteReq.misses::cpu.data        22364                       # number of WriteReq misses (Count)
system.cpu.dcache.WriteReq.misses::total        22364                       # number of WriteReq misses (Count)
system.cpu.dcache.WriteReq.missLatency::cpu.data    643450466                       # number of WriteReq miss ticks (Tick)
system.cpu.dcache.WriteReq.missLatency::total    643450466                       # number of WriteReq miss ticks (Tick)
system.cpu.dcache.WriteReq.accesses::cpu.data      5404369                       # number of WriteReq accesses(hits+misses) (Count)
system.cpu.dcache.WriteReq.accesses::total      5404369                       # number of WriteReq accesses(hits+misses) (Count)
system.cpu.dcache.WriteReq.missRate::cpu.data     0.004138                       # miss rate for WriteReq accesses (Ratio)
system.cpu.dcache.WriteReq.missRate::total     0.004138                       # miss rate for WriteReq accesses (Ratio)
system.cpu.dcache.WriteReq.avgMissLatency::cpu.data 28771.707476                       # average WriteReq miss latency ((Tick/Count))
system.cpu.dcache.WriteReq.avgMissLatency::total 28771.707476                       # average WriteReq miss latency ((Tick/Count))
system.cpu.dcache.WriteReq.mshrHits::cpu.data         6446                       # number of WriteReq MSHR hits (Count)
system.cpu.dcache.WriteReq.mshrHits::total         6446                       # number of WriteReq MSHR hits (Count)
system.cpu.dcache.WriteReq.mshrMisses::cpu.data        15918                       # number of WriteReq MSHR misses (Count)
system.cpu.dcache.WriteReq.mshrMisses::total        15918                       # number of WriteReq MSHR misses (Count)
system.cpu.dcache.WriteReq.mshrMissLatency::cpu.data    452807499                       # number of WriteReq MSHR miss ticks (Tick)
system.cpu.dcache.WriteReq.mshrMissLatency::total    452807499                       # number of WriteReq MSHR miss ticks (Tick)
system.cpu.dcache.WriteReq.mshrMissRate::cpu.data     0.002945                       # mshr miss rate for WriteReq accesses (Ratio)
system.cpu.dcache.WriteReq.mshrMissRate::total     0.002945                       # mshr miss rate for WriteReq accesses (Ratio)
system.cpu.dcache.WriteReq.avgMshrMissLatency::cpu.data 28446.255748                       # average WriteReq mshr miss latency ((Tick/Count))
system.cpu.dcache.WriteReq.avgMshrMissLatency::total 28446.255748                       # average WriteReq mshr miss latency ((Tick/Count))
system.cpu.dcache.power_state.pwrStateResidencyTicks::UNDEFINED  16719229500                       # Cumulative time (in ticks) in various power states (Tick)
system.cpu.dcache.tags.tagsInUse           127.948045                       # Average ticks per tags in use ((Tick/Count))
system.cpu.dcache.tags.totalRefs             12417510                       # Total number of references to valid blocks. (Count)
system.cpu.dcache.tags.sampledRefs             340881                       # Sample count of references to valid blocks. (Count)
system.cpu.dcache.tags.avgRefs              36.427698                       # Average number of references to valid blocks. ((Count/Count))
system.cpu.dcache.tags.warmupTick              145000                       # The tick when the warmup percentage was hit. (Tick)
system.cpu.dcache.tags.occupancies::cpu.data   127.948045                       # Average occupied blocks per tick, per requestor ((Count/Tick))
system.cpu.dcache.tags.avgOccs::cpu.data     0.999594                       # Average percentage of cache occupancy ((Ratio/Tick))
system.cpu.dcache.tags.avgOccs::total        0.999594                       # Average percentage of cache occupancy ((Ratio/Tick))
system.cpu.dcache.tags.occupanciesTaskId::1024          128                       # Occupied blocks per task id (Count)
system.cpu.dcache.tags.ageTaskId_1024::0           79                       # Occupied blocks per task id, per block age (Count)
system.cpu.dcache.tags.ageTaskId_1024::1           49                       # Occupied blocks per task id, per block age (Count)
system.cpu.dcache.tags.ratioOccsTaskId::1024            1                       # Ratio of occupied blocks and all blocks, per task id (Ratio)
system.cpu.dcache.tags.tagAccesses           25286895                       # Number of tag accesses (Count)
system.cpu.dcache.tags.dataAccesses          25286895                       # Number of data accesses (Count)
system.cpu.dcache.tags.power_state.pwrStateResidencyTicks::UNDEFINED  16719229500                       # Cumulative time (in ticks) in various power states (Tick)
system.cpu.decode.idleCycles                  5517195                       # Number of cycles decode is idle (Cycle)
system.cpu.decode.blockedCycles              18793323                       # Number of cycles decode is blocked (Cycle)
system.cpu.decode.runCycles                   6745121                       # Number of cycles decode is running (Cycle)
system.cpu.decode.unblockCycles               1783259                       # Number of cycles decode is unblocking (Cycle)
system.cpu.decode.squashCycles                 123119                       # Number of cycles decode is squashing (Cycle)
system.cpu.decode.branchResolved              4072733                       # Number of times decode resolved a branch (Count)
system.cpu.decode.branchMispred                 25013                       # Number of times decode detected a branch misprediction (Count)
system.cpu.decode.decodedInsts               50970594                       # Number of instructions handled by decode (Count)
system.cpu.decode.squashedInsts                131521                       # Number of squashed instructions handled by decode (Count)
system.cpu.fetch.icacheStallCycles            7660148                       # Number of cycles fetch is stalled on an Icache miss (Cycle)
system.cpu.fetch.insts                       47739871                       # Number of instructions fetch has processed (Count)
system.cpu.fetch.branches                     7513132                       # Number of branches that fetch encountered (Count)
system.cpu.fetch.predictedBranches            4796462                       # Number of branches that fetch has predicted taken (Count)
system.cpu.fetch.cycles                      25153453                       # Number of cycles fetch has run and was not squashing or blocked (Cycle)
system.cpu.fetch.squashCycles                  296246                       # Number of cycles fetch has spent squashing (Cycle)
system.cpu.fetch.miscStallCycles                  235                       # Number of cycles fetch has spent waiting on interrupts, or bad addresses, or out of MSHRs (Cycle)
system.cpu.fetch.icacheWaitRetryStallCycles           58                       # Number of stall cycles due to full MSHR (Cycle)
system.cpu.fetch.cacheLines                   6897791                       # Number of cache lines fetched (Count)
system.cpu.fetch.icacheSquashes                 47095                       # Number of outstanding Icache misses that were squashed (Count)
system.cpu.fetch.nisnDist::samples           32962017                       # Number of instructions fetched each cycle (Total) (Count)
system.cpu.fetch.nisnDist::mean              1.600439                       # Number of instructions fetched each cycle (Total) (Count)
system.cpu.fetch.nisnDist::stdev             2.707204                       # Number of instructions fetched each cycle (Total) (Count)
system.cpu.fetch.nisnDist::underflows               0      0.00%      0.00% # Number of instructions fetched each cycle (Total) (Count)
system.cpu.fetch.nisnDist::0                 22384295     67.91%     67.91% # Number of instructions fetched each cycle (Total) (Count)
system.cpu.fetch.nisnDist::1                   828145      2.51%     70.42% # Number of instructions fetched each cycle (Total) (Count)
system.cpu.fetch.nisnDist::2                  1384706      4.20%     74.62% # Number of instructions fetched each cycle (Total) (Count)
system.cpu.fetch.nisnDist::3                  1238560      3.76%     78.38% # Number of instructions fetched each cycle (Total) (Count)
system.cpu.fetch.nisnDist::4                  1328896      4.03%     82.41% # Number of instructions fetched each cycle (Total) (Count)
system.cpu.fetch.nisnDist::5                  1382820      4.20%     86.61% # Number of instructions fetched each cycle (Total) (Count)
system.cpu.fetch.nisnDist::6                   857386      2.60%     89.21% # Number of instructions fetched each cycle (Total) (Count)
system.cpu.fetch.nisnDist::7                   391199      1.19%     90.39% # Number of instructions fetched each cycle (Total) (Count)
system.cpu.fetch.nisnDist::8                  3166010      9.61%    100.00% # Number of instructions fetched each cycle (Total) (Count)
system.cpu.fetch.nisnDist::overflows                0      0.00%    100.00% # Number of instructions fetched each cycle (Total) (Count)
system.cpu.fetch.nisnDist::min_value                0                       # Number of instructions fetched each cycle (Total) (Count)
system.cpu.fetch.nisnDist::max_value                8                       # Number of instructions fetched each cycle (Total) (Count)
system.cpu.fetch.nisnDist::total             32962017                       # Number of instructions fetched each cycle (Total) (Count)
system.cpu.fetch.branchRate                  0.224685                       # Number of branch fetches per cycle (Ratio)
system.cpu.fetch.rate                        1.427693                       # Number of inst fetches per cycle ((Count/Cycle))
system.cpu.icache.demandHits::cpu.inst        6868338                       # number of demand (read+write) hits (Count)
system.cpu.icache.demandHits::total           6868338                       # number of demand (read+write) hits (Count)
system.cpu.icache.overallHits::cpu.inst       6868338                       # number of overall hits (Count)
system.cpu.icache.overallHits::total          6868338                       # number of overall hits (Count)
system.cpu.icache.demandMisses::cpu.inst        29451                       # number of demand (read+write) misses (Count)
system.cpu.icache.demandMisses::total           29451                       # number of demand (read+write) misses (Count)
system.cpu.icache.overallMisses::cpu.inst        29451                       # number of overall misses (Count)
system.cpu.icache.overallMisses::total          29451                       # number of overall misses (Count)
system.cpu.icache.demandMissLatency::cpu.inst    716377498                       # number of demand (read+write) miss ticks (Tick)
system.cpu.icache.demandMissLatency::total    716377498                       # number of demand (read+write) miss ticks (Tick)
system.cpu.icache.overallMissLatency::cpu.inst    716377498                       # number of overall miss ticks (Tick)
system.cpu.icache.overallMissLatency::total    716377498                       # number of overall miss ticks (Tick)
system.cpu.icache.demandAccesses::cpu.inst      6897789                       # number of demand (read+write) accesses (Count)
system.cpu.icache.demandAccesses::total       6897789                       # number of demand (read+write) accesses (Count)
system.cpu.icache.overallAccesses::cpu.inst      6897789                       # number of overall (read+write) accesses (Count)
system.cpu.icache.overallAccesses::total      6897789                       # number of overall (read+write) accesses (Count)
system.cpu.icache.demandMissRate::cpu.inst     0.004270                       # miss rate for demand accesses (Ratio)
system.cpu.icache.demandMissRate::total      0.004270                       # miss rate for demand accesses (Ratio)
system.cpu.icache.overallMissRate::cpu.inst     0.004270                       # miss rate for overall accesses (Ratio)
system.cpu.icache.overallMissRate::total     0.004270                       # miss rate for overall accesses (Ratio)
system.cpu.icache.demandAvgMissLatency::cpu.inst 24324.386201                       # average overall miss latency ((Cycle/Count))
system.cpu.icache.demandAvgMissLatency::total 24324.386201                       # average overall miss latency ((Cycle/Count))
system.cpu.icache.overallAvgMissLatency::cpu.inst 24324.386201                       # average overall miss latency ((Cycle/Count))
system.cpu.icache.overallAvgMissLatency::total 24324.386201                       # average overall miss latency ((Cycle/Count))
system.cpu.icache.blockedCycles::no_mshrs          910                       # number of cycles access was blocked (Cycle)
system.cpu.icache.blockedCycles::no_targets            0                       # number of cycles access was blocked (Cycle)
system.cpu.icache.blockedCauses::no_mshrs           13                       # number of times access was blocked (Count)
system.cpu.icache.blockedCauses::no_targets            0                       # number of times access was blocked (Count)
system.cpu.icache.avgBlocked::no_mshrs             70                       # average number of cycles each access was blocked ((Cycle/Count))
system.cpu.icache.avgBlocked::no_targets          nan                       # average number of cycles each access was blocked ((Cycle/Count))
system.cpu.icache.writebacks::writebacks        28573                       # number of writebacks (Count)
system.cpu.icache.writebacks::total             28573                       # number of writebacks (Count)
system.cpu.icache.demandMshrHits::cpu.inst          396                       # number of demand (read+write) MSHR hits (Count)
system.cpu.icache.demandMshrHits::total           396                       # number of demand (read+write) MSHR hits (Count)
system.cpu.icache.overallMshrHits::cpu.inst          396                       # number of overall MSHR hits (Count)
system.cpu.icache.overallMshrHits::total          396                       # number of overall MSHR hits (Count)
system.cpu.icache.demandMshrMisses::cpu.inst        29055                       # number of demand (read+write) MSHR misses (Count)
system.cpu.icache.demandMshrMisses::total        29055                       # number of demand (read+write) MSHR misses (Count)
system.cpu.icache.overallMshrMisses::cpu.inst        29055                       # number of overall MSHR misses (Count)
system.cpu.icache.overallMshrMisses::total        29055                       # number of overall MSHR misses (Count)
system.cpu.icache.demandMshrMissLatency::cpu.inst    672497498                       # number of demand (read+write) MSHR miss ticks (Tick)
system.cpu.icache.demandMshrMissLatency::total    672497498                       # number of demand (read+write) MSHR miss ticks (Tick)
system.cpu.icache.overallMshrMissLatency::cpu.inst    672497498                       # number of overall MSHR miss ticks (Tick)
system.cpu.icache.overallMshrMissLatency::total    672497498                       # number of overall MSHR miss ticks (Tick)
system.cpu.icache.demandMshrMissRate::cpu.inst     0.004212                       # mshr miss ratio for demand accesses (Ratio)
system.cpu.icache.demandMshrMissRate::total     0.004212                       # mshr miss ratio for demand accesses (Ratio)
system.cpu.icache.overallMshrMissRate::cpu.inst     0.004212                       # mshr miss ratio for overall accesses (Ratio)
system.cpu.icache.overallMshrMissRate::total     0.004212                       # mshr miss ratio for overall accesses (Ratio)
system.cpu.icache.demandAvgMshrMissLatency::cpu.inst 23145.671933                       # average overall mshr miss latency ((Cycle/Count))
system.cpu.icache.demandAvgMshrMissLatency::total 23145.671933                       # average overall mshr miss latency ((Cycle/Count))
system.cpu.icache.overallAvgMshrMissLatency::cpu.inst 23145.671933                       # average overall mshr miss latency ((Cycle/Count))
system.cpu.icache.overallAvgMshrMissLatency::total 23145.671933                       # average overall mshr miss latency ((Cycle/Count))
system.cpu.icache.replacements                  28573                       # number of replacements (Count)
system.cpu.icache.ReadReq.hits::cpu.inst      6868338                       # number of ReadReq hits (Count)
system.cpu.icache.ReadReq.hits::total         6868338                       # number of ReadReq hits (Count)
system.cpu.icache.ReadReq.misses::cpu.inst        29451                       # number of ReadReq misses (Count)
system.cpu.icache.ReadReq.misses::total         29451                       # number of ReadReq misses (Count)
system.cpu.icache.ReadReq.missLatency::cpu.inst    716377498                       # number of ReadReq miss ticks (Tick)
system.cpu.icache.ReadReq.missLatency::total    716377498                       # number of ReadReq miss ticks (Tick)
system.cpu.icache.ReadReq.accesses::cpu.inst      6897789                       # number of ReadReq accesses(hits+misses) (Count)
system.cpu.icache.ReadReq.accesses::total      6897789                       # number of ReadReq accesses(hits+misses) (Count)
system.cpu.icache.ReadReq.missRate::cpu.inst     0.004270                       # miss rate for ReadReq accesses (Ratio)
system.cpu.icache.ReadReq.missRate::total     0.004270                       # miss rate for ReadReq accesses (Ratio)
system.cpu.icache.ReadReq.avgMissLatency::cpu.inst 24324.386201                       # average ReadReq miss latency ((Tick/Count))
system.cpu.icache.ReadReq.avgMissLatency::total 24324.386201                       # average ReadReq miss latency ((Tick/Count))
system.cpu.icache.ReadReq.mshrHits::cpu.inst          396                       # number of ReadReq MSHR hits (Count)
system.cpu.icache.ReadReq.mshrHits::total          396                       # number of ReadReq MSHR hits (Count)
system.cpu.icache.ReadReq.mshrMisses::cpu.inst        29055                       # number of ReadReq MSHR misses (Count)
system.cpu.icache.ReadReq.mshrMisses::total        29055                       # number of ReadReq MSHR misses (Count)
system.cpu.icache.ReadReq.mshrMissLatency::cpu.inst    672497498                       # number of ReadReq MSHR miss ticks (Tick)
system.cpu.icache.ReadReq.mshrMissLatency::total    672497498                       # number of ReadReq MSHR miss ticks (Tick)
system.cpu.icache.ReadReq.mshrMissRate::cpu.inst     0.004212                       # mshr miss rate for ReadReq accesses (Ratio)
system.cpu.icache.ReadReq.mshrMissRate::total     0.004212                       # mshr miss rate for ReadReq accesses (Ratio)
system.cpu.icache.ReadReq.avgMshrMissLatency::cpu.inst 23145.671933                       # average ReadReq mshr miss latency ((Tick/Count))
system.cpu.icache.ReadReq.avgMshrMissLatency::total 23145.671933                       # average ReadReq mshr miss latency ((Tick/Count))
system.cpu.icache.power_state.pwrStateResidencyTicks::UNDEFINED  16719229500                       # Cumulative time (in ticks) in various power states (Tick)
system.cpu.icache.tags.tagsInUse           406.224745                       # Average ticks per tags in use ((Tick/Count))
system.cpu.icache.tags.totalRefs              6897392                       # Total number of references to valid blocks. (Count)
system.cpu.icache.tags.sampledRefs              29054                       # Sample count of references to valid blocks. (Count)
system.cpu.icache.tags.avgRefs             237.399050                       # Average number of references to valid blocks. ((Count/Count))
system.cpu.icache.tags.warmupTick               77000                       # The tick when the warmup percentage was hit. (Tick)
system.cpu.icache.tags.occupancies::cpu.inst   406.224745                       # Average occupied blocks per tick, per requestor ((Count/Tick))
system.cpu.icache.tags.avgOccs::cpu.inst     0.793408                       # Average percentage of cache occupancy ((Ratio/Tick))
system.cpu.icache.tags.avgOccs::total        0.793408                       # Average percentage of cache occupancy ((Ratio/Tick))
system.cpu.icache.tags.occupanciesTaskId::1024          481                       # Occupied blocks per task id (Count)
system.cpu.icache.tags.ageTaskId_1024::0          128                       # Occupied blocks per task id, per block age (Count)
system.cpu.icache.tags.ageTaskId_1024::1           24                       # Occupied blocks per task id, per block age (Count)
system.cpu.icache.tags.ageTaskId_1024::2            2                       # Occupied blocks per task id, per block age (Count)
system.cpu.icache.tags.ageTaskId_1024::3          175                       # Occupied blocks per task id, per block age (Count)
system.cpu.icache.tags.ageTaskId_1024::4          152                       # Occupied blocks per task id, per block age (Count)
system.cpu.icache.tags.ratioOccsTaskId::1024     0.939453                       # Ratio of occupied blocks and all blocks, per task id (Ratio)
system.cpu.icache.tags.tagAccesses           13824632                       # Number of tag accesses (Count)
system.cpu.icache.tags.dataAccesses          13824632                       # Number of data accesses (Count)
system.cpu.icache.tags.power_state.pwrStateResidencyTicks::UNDEFINED  16719229500                       # Cumulative time (in ticks) in various power states (Tick)
[...]
system.mem_ctrls.dram.bwRead::cpu.inst      111216608                       # Total read bandwidth from this memory ((Byte/Second))
system.mem_ctrls.dram.bwRead::cpu.data     1298720135                       # Total read bandwidth from this memory ((Byte/Second))
system.mem_ctrls.dram.bwRead::total        1409936744                       # Total read bandwidth from this memory ((Byte/Second))
system.mem_ctrls.dram.bwInstRead::cpu.inst    111216608                       # Instruction read bandwidth from this memory ((Byte/Second))
system.mem_ctrls.dram.bwInstRead::total     111216608                       # Instruction read bandwidth from this memory ((Byte/Second))
system.mem_ctrls.dram.bwWrite::writebacks     97834174                       # Write bandwidth from this memory ((Byte/Second))
system.mem_ctrls.dram.bwWrite::total         97834174                       # Write bandwidth from this memory ((Byte/Second))
system.mem_ctrls.dram.bwTotal::writebacks     97834174                       # Total bandwidth to/from this memory ((Byte/Second))
system.mem_ctrls.dram.bwTotal::cpu.inst     111216608                       # Total bandwidth to/from this memory ((Byte/Second))
system.mem_ctrls.dram.bwTotal::cpu.data    1298720135                       # Total bandwidth to/from this memory ((Byte/Second))
system.mem_ctrls.dram.bwTotal::total       1507770917                       # Total bandwidth to/from this memory ((Byte/Second))
system.mem_ctrls.dram.readBursts               322034                       # Number of DRAM read bursts (Count)
system.mem_ctrls.dram.writeBursts                8377                       # Number of DRAM write bursts (Count)
system.mem_ctrls.dram.perBankRdBursts::0         9306                       # Per bank write bursts (Count)
system.mem_ctrls.dram.perBankRdBursts::1         9093                       # Per bank write bursts (Count)
system.mem_ctrls.dram.perBankRdBursts::2         9481                       # Per bank write bursts (Count)
system.mem_ctrls.dram.perBankRdBursts::3         5120                       # Per bank write bursts (Count)
system.mem_ctrls.dram.perBankRdBursts::4         1042                       # Per bank write bursts (Count)
system.mem_ctrls.dram.perBankRdBursts::5         1965                       # Per bank write bursts (Count)
system.mem_ctrls.dram.perBankRdBursts::6         1931                       # Per bank write bursts (Count)
system.mem_ctrls.dram.perBankRdBursts::7         1864                       # Per bank write bursts (Count)
system.mem_ctrls.dram.perBankRdBursts::8        25329                       # Per bank write bursts (Count)
system.mem_ctrls.dram.perBankRdBursts::9        66073                       # Per bank write bursts (Count)
system.mem_ctrls.dram.perBankRdBursts::10        65942                       # Per bank write bursts (Count)
system.mem_ctrls.dram.perBankRdBursts::11        66023                       # Per bank write bursts (Count)
system.mem_ctrls.dram.perBankRdBursts::12        50870                       # Per bank write bursts (Count)
system.mem_ctrls.dram.perBankRdBursts::13          946                       # Per bank write bursts (Count)
system.mem_ctrls.dram.perBankRdBursts::14         5329                       # Per bank write bursts (Count)
system.mem_ctrls.dram.perBankRdBursts::15         1720                       # Per bank write bursts (Count)
system.mem_ctrls.dram.perBankWrBursts::0          509                       # Per bank write bursts (Count)
system.mem_ctrls.dram.perBankWrBursts::1          520                       # Per bank write bursts (Count)
system.mem_ctrls.dram.perBankWrBursts::2          621                       # Per bank write bursts (Count)
system.mem_ctrls.dram.perBankWrBursts::3          254                       # Per bank write bursts (Count)
system.mem_ctrls.dram.perBankWrBursts::4          439                       # Per bank write bursts (Count)
system.mem_ctrls.dram.perBankWrBursts::5          589                       # Per bank write bursts (Count)
system.mem_ctrls.dram.perBankWrBursts::6          541                       # Per bank write bursts (Count)
system.mem_ctrls.dram.perBankWrBursts::7          518                       # Per bank write bursts (Count)
system.mem_ctrls.dram.perBankWrBursts::8          534                       # Per bank write bursts (Count)
system.mem_ctrls.dram.perBankWrBursts::9          543                       # Per bank write bursts (Count)
system.mem_ctrls.dram.perBankWrBursts::10          515                       # Per bank write bursts (Count)
system.mem_ctrls.dram.perBankWrBursts::11          568                       # Per bank write bursts (Count)
system.mem_ctrls.dram.perBankWrBursts::12          538                       # Per bank write bursts (Count)
system.mem_ctrls.dram.perBankWrBursts::13          524                       # Per bank write bursts (Count)
system.mem_ctrls.dram.perBankWrBursts::14          549                       # Per bank write bursts (Count)
system.mem_ctrls.dram.perBankWrBursts::15          615                       # Per bank write bursts (Count)
system.mem_ctrls.dram.totQLat              1433176750                       # Total ticks spent queuing (Tick)
system.mem_ctrls.dram.totBusLat            1610170000                       # Total ticks spent in databus transfers (Tick)
system.mem_ctrls.dram.totMemAccLat         7471314250                       # Total ticks spent from burst creation until serviced by the DRAM (Tick)
system.mem_ctrls.dram.avgQLat                 4450.39                       # Average queueing delay per DRAM burst ((Tick/Count))
system.mem_ctrls.dram.avgBusLat               5000.00                       # Average bus latency per DRAM burst ((Tick/Count))
system.mem_ctrls.dram.avgMemAccLat           23200.39                       # Average memory access latency per DRAM burst ((Tick/Count))
system.mem_ctrls.dram.readRowHits              293860                       # Number of row buffer hits during reads (Count)
system.mem_ctrls.dram.writeRowHits               7605                       # Number of row buffer hits during writes (Count)
system.mem_ctrls.dram.readRowHitRate            91.25                       # Row buffer hit rate for reads (Ratio)
system.mem_ctrls.dram.writeRowHitRate           90.78                       # Row buffer hit rate for writes (Ratio)
system.mem_ctrls.dram.bytesPerActivate::samples        28934                       # Bytes accessed per row activation (Byte)
system.mem_ctrls.dram.bytesPerActivate::mean   730.762148                       # Bytes accessed per row activation (Byte)
system.mem_ctrls.dram.bytesPerActivate::gmean   567.997943                       # Bytes accessed per row activation (Byte)
system.mem_ctrls.dram.bytesPerActivate::stdev   360.892642                       # Bytes accessed per row activation (Byte)
system.mem_ctrls.dram.bytesPerActivate::0-127         2461      8.51%      8.51% # Bytes accessed per row activation (Byte)
system.mem_ctrls.dram.bytesPerActivate::128-255         1775      6.13%     14.64% # Bytes accessed per row activation (Byte)
system.mem_ctrls.dram.bytesPerActivate::256-383         2732      9.44%     24.08% # Bytes accessed per row activation (Byte)
system.mem_ctrls.dram.bytesPerActivate::384-511          863      2.98%     27.07% # Bytes accessed per row activation (Byte)
system.mem_ctrls.dram.bytesPerActivate::512-639         1961      6.78%     33.84% # Bytes accessed per row activation (Byte)
system.mem_ctrls.dram.bytesPerActivate::640-767         2454      8.48%     42.32% # Bytes accessed per row activation (Byte)
system.mem_ctrls.dram.bytesPerActivate::768-895          404      1.40%     43.72% # Bytes accessed per row activation (Byte)
system.mem_ctrls.dram.bytesPerActivate::896-1023          649      2.24%     45.96% # Bytes accessed per row activation (Byte)
system.mem_ctrls.dram.bytesPerActivate::1024-1151        15635     54.04%    100.00% # Bytes accessed per row activation (Byte)
system.mem_ctrls.dram.bytesPerActivate::total        28934                       # Bytes accessed per row activation (Byte)
system.mem_ctrls.dram.bytesRead              20610176                       # Total bytes read (Byte)
system.mem_ctrls.dram.bytesWritten             536128                       # Total bytes written (Byte)
system.mem_ctrls.dram.avgRdBW             1232.722836                       # Average DRAM read bandwidth in MiBytes/s ((Byte/Second))
system.mem_ctrls.dram.avgWrBW               32.066549                       # Average DRAM write bandwidth in MiBytes/s ((Byte/Second))
system.mem_ctrls.dram.peakBW                 12800.00                       # Theoretical peak bandwidth in MiByte/s ((Byte/Second))
system.mem_ctrls.dram.busUtil                    9.88                       # Data bus utilization in percentage (Ratio)
system.mem_ctrls.dram.busUtilRead                9.63                       # Data bus utilization in percentage for reads (Ratio)
system.mem_ctrls.dram.busUtilWrite               0.25                       # Data bus utilization in percentage for writes (Ratio)
system.mem_ctrls.dram.pageHitRate               91.24                       # Row buffer hit rate, read and write combined (Ratio)
system.mem_ctrls.dram.power_state.pwrStateResidencyTicks::UNDEFINED  16719229500                       # Cumulative time (in ticks) in various power states (Tick)
system.mem_ctrls.dram.rank0.actEnergy        45845940                       # Energy for activate commands per rank (pJ) (Joule)
system.mem_ctrls.dram.rank0.preEnergy        24352515                       # Energy for precharge commands per rank (pJ) (Joule)
system.mem_ctrls.dram.rank0.readEnergy      284179140                       # Energy for read commands per rank (pJ) (Joule)
system.mem_ctrls.dram.rank0.writeEnergy      20833020                       # Energy for write commands per rank (pJ) (Joule)
system.mem_ctrls.dram.rank0.refreshEnergy 1319632080.000000                       # Energy for refresh commands per rank (pJ) (Joule)
system.mem_ctrls.dram.rank0.actBackEnergy   6623862840                       # Energy for active background per rank (pJ) (Joule)
system.mem_ctrls.dram.rank0.preBackEnergy    842194560                       # Energy for precharge background per rank (pJ) (Joule)
system.mem_ctrls.dram.rank0.actPowerDownEnergy            0                       # Energy for active power-down per rank (pJ) (Joule)
system.mem_ctrls.dram.rank0.prePowerDownEnergy            0                       # Energy for precharge power-down per rank (pJ) (Joule)
system.mem_ctrls.dram.rank0.selfRefreshEnergy            0                       # Energy for self refresh per rank (pJ) (Joule)
system.mem_ctrls.dram.rank0.totalEnergy    9160900095                       # Total energy per rank (pJ) (Joule)
system.mem_ctrls.dram.rank0.averagePower   547.925973                       # Core power per rank (mW) (Watt)
system.mem_ctrls.dram.rank0.totalIdleTime            0                       # Total Idle time Per DRAM Rank (Tick)
system.mem_ctrls.dram.rank0.pwrStateTime::IDLE   2132382500                       # Time in different power states (Tick)
system.mem_ctrls.dram.rank0.pwrStateTime::REF    558220000                       # Time in different power states (Tick)
system.mem_ctrls.dram.rank0.pwrStateTime::SREF            0                       # Time in different power states (Tick)
system.mem_ctrls.dram.rank0.pwrStateTime::PRE_PDN            0                       # Time in different power states (Tick)
system.mem_ctrls.dram.rank0.pwrStateTime::ACT  14028627000                       # Time in different power states (Tick)
system.mem_ctrls.dram.rank0.pwrStateTime::ACT_PDN            0                       # Time in different power states (Tick)
system.mem_ctrls.dram.rank1.actEnergy       160821360                       # Energy for activate commands per rank (pJ) (Joule)
system.mem_ctrls.dram.rank1.preEnergy        85452015                       # Energy for precharge commands per rank (pJ) (Joule)
system.mem_ctrls.dram.rank1.readEnergy     2015136480                       # Energy for read commands per rank (pJ) (Joule)
system.mem_ctrls.dram.rank1.writeEnergy      22894920                       # Energy for write commands per rank (pJ) (Joule)
system.mem_ctrls.dram.rank1.refreshEnergy 1319632080.000000                       # Energy for refresh commands per rank (pJ) (Joule)
system.mem_ctrls.dram.rank1.actBackEnergy   6937922580                       # Energy for active background per rank (pJ) (Joule)
system.mem_ctrls.dram.rank1.preBackEnergy    577723200                       # Energy for precharge background per rank (pJ) (Joule)
system.mem_ctrls.dram.rank1.actPowerDownEnergy            0                       # Energy for active power-down per rank (pJ) (Joule)
system.mem_ctrls.dram.rank1.prePowerDownEnergy            0                       # Energy for precharge power-down per rank (pJ) (Joule)
system.mem_ctrls.dram.rank1.selfRefreshEnergy            0                       # Energy for self refresh per rank (pJ) (Joule)
system.mem_ctrls.dram.rank1.totalEnergy   11119582635                       # Total energy per rank (pJ) (Joule)
system.mem_ctrls.dram.rank1.averagePower   665.077457                       # Core power per rank (mW) (Watt)
system.mem_ctrls.dram.rank1.totalIdleTime            0                       # Total Idle time Per DRAM Rank (Tick)
system.mem_ctrls.dram.rank1.pwrStateTime::IDLE   1443785500                       # Time in different power states (Tick)
system.mem_ctrls.dram.rank1.pwrStateTime::REF    558220000                       # Time in different power states (Tick)
system.mem_ctrls.dram.rank1.pwrStateTime::SREF            0                       # Time in different power states (Tick)
system.mem_ctrls.dram.rank1.pwrStateTime::PRE_PDN            0                       # Time in different power states (Tick)
system.mem_ctrls.dram.rank1.pwrStateTime::ACT  14717224000                       # Time in different power states (Tick)
system.mem_ctrls.dram.rank1.pwrStateTime::ACT_PDN            0                       # Time in different power states (Tick)
system.mem_ctrls.power_state.pwrStateResidencyTicks::UNDEFINED  16719229500                       # Cumulative time (in ticks) in various power states (Tick)
system.membus.transDist::ReadResp              352410                       # Transaction distribution (Count)
system.membus.transDist::WritebackDirty         25558                       # Transaction distribution (Count)
system.membus.transDist::WritebackClean         28573                       # Transaction distribution (Count)
system.membus.transDist::CleanEvict            315195                       # Transaction distribution (Count)
system.membus.transDist::ReadExReq              15919                       # Transaction distribution (Count)
system.membus.transDist::ReadExResp             15919                       # Transaction distribution (Count)
system.membus.transDist::ReadCleanReq           29055                       # Transaction distribution (Count)
system.membus.transDist::ReadSharedReq         323356                       # Transaction distribution (Count)
system.membus.transDist::InvalidateReq           1606                       # Transaction distribution (Count)
system.membus.pktCount_system.cpu.icache.mem_side_port::system.mem_ctrls.port        86682                       # Packet count per connected requestor and responder (Count)
system.membus.pktCount_system.cpu.dcache.mem_side_port::system.mem_ctrls.port      1020909                       # Packet count per connected requestor and responder (Count)
system.membus.pktCount::total                 1107591                       # Packet count per connected requestor and responder (Count)
system.membus.pktSize_system.cpu.icache.mem_side_port::system.mem_ctrls.port      3688128                       # Cumulative packet size per connected requestor and responder (Byte)
system.membus.pktSize_system.cpu.dcache.mem_side_port::system.mem_ctrls.port     23349312                       # Cumulative packet size per connected requestor and responder (Byte)
system.membus.pktSize::total                 27037440                       # Cumulative packet size per connected requestor and responder (Byte)
system.membus.snoops                                0                       # Total snoops (Count)
system.membus.snoopTraffic                          0                       # Total snoop traffic (Byte)
system.membus.snoopFanout::samples             369936                       # Request fanout histogram (Count)
system.membus.snoopFanout::mean              0.000005                       # Request fanout histogram (Count)
system.membus.snoopFanout::stdev             0.002325                       # Request fanout histogram (Count)
system.membus.snoopFanout::underflows               0      0.00%      0.00% # Request fanout histogram (Count)
system.membus.snoopFanout::0                   369934    100.00%    100.00% # Request fanout histogram (Count)
system.membus.snoopFanout::1                        2      0.00%    100.00% # Request fanout histogram (Count)
system.membus.snoopFanout::2                        0      0.00%    100.00% # Request fanout histogram (Count)
system.membus.snoopFanout::overflows                0      0.00%    100.00% # Request fanout histogram (Count)
system.membus.snoopFanout::min_value                0                       # Request fanout histogram (Count)
system.membus.snoopFanout::max_value                1                       # Request fanout histogram (Count)
system.membus.snoopFanout::total               369936                       # Request fanout histogram (Count)
system.membus.power_state.pwrStateResidencyTicks::UNDEFINED  16719229500                       # Cumulative time (in ticks) in various power states (Tick)
system.membus.reqLayer0.occupancy          1074050500                       # Layer occupancy (ticks) (Tick)
system.membus.reqLayer0.utilization               0.1                       # Layer utilization (Ratio)
system.membus.respLayer1.occupancy          145589998                       # Layer occupancy (ticks) (Tick)
system.membus.respLayer1.utilization              0.0                       # Layer utilization (Ratio)
system.membus.respLayer2.occupancy         1780003000                       # Layer occupancy (ticks) (Tick)
system.membus.respLayer2.utilization              0.1                       # Layer utilization (Ratio)
system.membus.snoop_filter.totRequests         739264                       # Total number of requests made to the snoop filter. (Count)
system.membus.snoop_filter.hitSingleRequests       369329                       # Number of requests hitting in the snoop filter with a single holder of the requested data. (Count)
system.membus.snoop_filter.hitMultiRequests            1                       # Number of requests hitting in the snoop filter with multiple (>1) holders of the requested data. (Count)
system.membus.snoop_filter.totSnoops                0                       # Total number of snoops made to the snoop filter. (Count)
system.membus.snoop_filter.hitSingleSnoops            0                       # Number of snoops hitting in the snoop filter with a single holder of the requested data. (Count)
system.membus.snoop_filter.hitMultiSnoops            0                       # Number of snoops hitting in the snoop filter with multiple (>1) holders of the requested data. (Count)
system.voltage_domain.voltage                       1                       # Voltage in Volts (Volt)
system.workload.inst.arm                            0                       # number of arm instructions executed (Count)
system.workload.inst.quiesce                        0                       # number of quiesce instructions executed (Count)

---------- End Simulation Statistics   ----------
