
---------- Begin Simulation Statistics ----------
simSeconds                                   0.020541                       # Number of seconds simulated (Second)
simTicks                                  20541328500                       # Number of ticks simulated (Tick)
finalTick                                 20541328500                       # Number of ticks from beginning of simulation (restored from checkpoints and never reset) (Tick)
simFreq                                  1000000000000                       # The number of ticks per simulated second ((Tick/Second))
hostSeconds                                     80.88                       # Real time elapsed on the host (Second)
hostTickRate                                253960748                       # The number of ticks simulated per host second (ticks/s) ((Tick/Second))
hostMemory                                     672460                       # Number of bytes of host memory used (Byte)
simInsts                                     42774967                       # Number of instructions simulated (Count)
simOps                                       47115337                       # Number of ops (including micro ops) simulated (Count)
hostInstRate                                   528844                       # Simulator instruction rate (inst/s) ((Count/Second))
hostOpRate                                     582506                       # Simulator op (including micro ops) rate (op/s) ((Count/Second))
system.clk_domain.clock                          1000                       # Clock period in ticks (Tick)
system.cpu.numCycles                         41082658                       # Number of cpu cycles simulated (Cycle)
system.cpu.numWorkItemsStarted                      0                       # Number of work items this cpu started (Count)
system.cpu.numWorkItemsCompleted                    0                       # Number of work items this cpu completed (Count)
system.cpu.instsAdded                        50171890                       # Number of instructions added to the IQ (excludes non-spec) (Count)
system.cpu.nonSpecInstsAdded                     4203                       # Number of non-speculative instructions added to the IQ (Count)
system.cpu.instsIssued                       49976746                       # Number of instructions issued (Count)
system.cpu.squashedInstsIssued                  24272                       # Number of squashed instructions issued (Count)
system.cpu.squashedInstsExamined              3060755                       # Number of squashed instructions iterated over during squash; mainly for profiling (Count)
system.cpu.squashedOperandsExamined           2274081                       # Number of squashed operands that are examined and possibly removed from graph (Count)
system.cpu.squashedNonSpecRemoved                  32                       # Number of squashed non-spec instructions that were removed (Count)
system.cpu.numIssuedDist::samples            40597238                       # Number of insts issued each cycle (Count)
system.cpu.numIssuedDist::mean               1.231038                       # Number of insts issued each cycle (Count)
system.cpu.numIssuedDist::stdev              1.750033                       # Number of insts issued each cycle (Count)
system.cpu.numIssuedDist::underflows                0      0.00%      0.00% # Number of insts issued each cycle (Count)
system.cpu.numIssuedDist::0                  21936235     54.03%     54.03% # Number of insts issued each cycle (Count)
system.cpu.numIssuedDist::1                   5438115     13.40%     67.43% # Number of insts issued each cycle (Count)
system.cpu.numIssuedDist::2                   5127895     12.63%     80.06% # Number of insts issued each cycle (Count)
system.cpu.numIssuedDist::3                   3069023      7.56%     87.62% # Number of insts issued each cycle (Count)
system.cpu.numIssuedDist::4                   2383978      5.87%     93.49% # Number of insts issued each cycle (Count)
system.cpu.numIssuedDist::5                   1261736      3.11%     96.60% # Number of insts issued each cycle (Count)
system.cpu.numIssuedDist::6                    712828      1.76%     98.36% # Number of insts issued each cycle (Count)
system.cpu.numIssuedDist::7                    385212      0.95%     99.30% # Number of insts issued each cycle (Count)
system.cpu.numIssuedDist::8                    282216      0.70%    100.00% # Number of insts issued each cycle (Count)
system.cpu.numIssuedDist::overflows                 0      0.00%    100.00% # Number of insts issued each cycle (Count)
system.cpu.numIssuedDist::min_value                 0                       # Number of insts issued each cycle (Count)
system.cpu.numIssuedDist::max_value                 8                       # Number of insts issued each cycle (Count)
system.cpu.numIssuedDist::total              40597238                       # Number of insts issued each cycle (Count)
system.cpu.statFuBusy::No_OpClass                   0      0.00%      0.00% # attempts to use FU when none available (Count)
system.cpu.statFuBusy::IntAlu                  210021     31.51%     31.51% # attempts to use FU when none available (Count)
system.cpu.statFuBusy::IntMult                  81424     12.22%     43.72% # attempts to use FU when none available (Count)
system.cpu.statFuBusy::IntDiv                       0      0.00%     43.72% # attempts to use FU when none available (Count)
system.cpu.statFuBusy::FloatAdd                     0      0.00%     43.72% # attempts to use FU when none available (Count)
system.cpu.statFuBusy::FloatCmp                     0      0.00%     43.72% # attempts to use FU when none available (Count)
system.cpu.statFuBusy::FloatCvt                     0      0.00%     43.72% # attempts to use FU when none available (Count)
system.cpu.statFuBusy::FloatMult                    0      0.00%     43.72% # attempts to use FU when none available (Count)
system.cpu.statFuBusy::FloatMultAcc                 0      0.00%     43.72% # attempts to use FU when none available (Count)
system.cpu.statFuBusy::FloatDiv                     0      0.00%     43.72% # attempts to use FU when none available (Count)
system.cpu.statFuBusy::FloatMisc                    0      0.00%     43.72% # attempts to use FU when none available (Count)
system.cpu.statFuBusy::FloatSqrt                    0      0.00%     43.72% # attempts to use FU when none available (Count)
system.cpu.statFuBusy::SimdAdd                      0      0.00%     43.72% # attempts to use FU when none available (Count)
system.cpu.statFuBusy::SimdAddAcc                   0      0.00%     43.72% # attempts to use FU when none available (Count)
system.cpu.statFuBusy::SimdAlu                     17      0.00%     43.73% # attempts to use FU when none available (Count)
system.cpu.statFuBusy::SimdCmp                   3599      0.54%     44.27% # attempts to use FU when none available (Count)
system.cpu.statFuBusy::SimdCvt                      0      0.00%     44.27% # attempts to use FU when none available (Count)
system.cpu.statFuBusy::SimdMisc                     0      0.00%     44.27% # attempts to use FU when none available (Count)
system.cpu.statFuBusy::SimdMult                     0      0.00%     44.27% # attempts to use FU when none available (Count)
system.cpu.statFuBusy::SimdMultAcc                  0      0.00%     44.27% # attempts to use FU when none available (Count)
system.cpu.statFuBusy::SimdShift                    0      0.00%     44.27% # attempts to use FU when none available (Count)
system.cpu.statFuBusy::SimdShiftAcc                 0      0.00%     44.27% # attempts to use FU when none available (Count)
system.cpu.statFuBusy::SimdDiv                      0      0.00%     44.27% # attempts to use FU when none available (Count)
system.cpu.statFuBusy::SimdSqrt                     0      0.00%     44.27% # attempts to use FU when none available (Count)
system.cpu.statFuBusy::SimdFloatAdd                 0      0.00%     44.27% # attempts to use FU when none available (Count)
system.cpu.statFuBusy::SimdFloatAlu                 0      0.00%     44.27% # attempts to use FU when none available (Count)
system.cpu.statFuBusy::SimdFloatCmp                 0      0.00%     44.27% # attempts to use FU when none available (Count)
system.cpu.statFuBusy::SimdFloatCvt                 0      0.00%     44.27% # attempts to use FU when none available (Count)
system.cpu.statFuBusy::SimdFloatDiv                 0      0.00%     44.27% # attempts to use FU when none available (Count)
system.cpu.statFuBusy::SimdFloatMisc                0      0.00%     44.27% # attempts to use FU when none available (Count)
system.cpu.statFuBusy::SimdFloatMult                0      0.00%     44.27% # attempts to use FU when none available (Count)
system.cpu.statFuBusy::SimdFloatMultAcc             0      0.00%     44.27% # attempts to use FU when none available (Count)
system.cpu.statFuBusy::SimdFloatSqrt                0      0.00%     44.27% # attempts to use FU when none available (Count)
system.cpu.statFuBusy::SimdReduceAdd                0      0.00%     44.27% # attempts to use FU when none available (Count)
system.cpu.statFuBusy::SimdReduceAlu                0      0.00%     44.27% # attempts to use FU when none available (Count)
system.cpu.statFuBusy::SimdReduceCmp                0      0.00%     44.27% # attempts to use FU when none available (Count)
system.cpu.statFuBusy::SimdFloatReduceAdd            0      0.00%     44.27% # attempts to use FU when none available (Count)
system.cpu.statFuBusy::SimdFloatReduceCmp            0      0.00%     44.27% # attempts to use FU when none available (Count)
system.cpu.statFuBusy::SimdAes                      0      0.00%     44.27% # attempts to use FU when none available (Count)
system.cpu.statFuBusy::SimdAesMix                   0      0.00%     44.27% # attempts to use FU when none available (Count)
system.cpu.statFuBusy::SimdSha1Hash                 0      0.00%     44.27% # attempts to use FU when none available (Count)
system.cpu.statFuBusy::SimdSha1Hash2                0      0.00%     44.27% # attempts to use FU when none available (Count)
system.cpu.statFuBusy::SimdSha256Hash               0      0.00%     44.27% # attempts to use FU when none available (Count)
system.cpu.statFuBusy::SimdSha256Hash2              0      0.00%     44.27% # attempts to use FU when none available (Count)
system.cpu.statFuBusy::SimdShaSigma2                0      0.00%     44.27% # attempts to use FU when none available (Count)
system.cpu.statFuBusy::SimdShaSigma3                0      0.00%     44.27% # attempts to use FU when none available (Count)
system.cpu.statFuBusy::SimdPredAlu                  0      0.00%     44.27% # attempts to use FU when none available (Count)
system.cpu.statFuBusy::MemRead                 211308     31.70%     75.97% # attempts to use FU when none available (Count)
system.cpu.statFuBusy::MemWrite                160208     24.03%    100.00% # attempts to use FU when none available (Count)
system.cpu.statFuBusy::FloatMemRead                 0      0.00%    100.00% # attempts to use FU when none available (Count)
system.cpu.statFuBusy::FloatMemWrite                0      0.00%    100.00% # attempts to use FU when none available (Count)
system.cpu.statFuBusy::IprAccess                    0      0.00%    100.00% # attempts to use FU when none available (Count)
system.cpu.statFuBusy::InstPrefetch                 0      0.00%    100.00% # attempts to use FU when none available (Count)
system.cpu.statIssuedInstType_0::No_OpClass        27824      0.06%      0.06% # Number of instructions issued per FU type, per thread (Count)
system.cpu.statIssuedInstType_0::IntAlu      31892405     63.81%     63.87% # Number of instructions issued per FU type, per thread (Count)
system.cpu.statIssuedInstType_0::IntMult       641413      1.28%     65.15% # Number of instructions issued per FU type, per thread (Count)
system.cpu.statIssuedInstType_0::IntDiv        154842      0.31%     65.46% # Number of instructions issued per FU type, per thread (Count)
system.cpu.statIssuedInstType_0::FloatAdd       278543      0.56%     66.02% # Number of instructions issued per FU type, per thread (Count)
system.cpu.statIssuedInstType_0::FloatCmp        16391      0.03%     66.05% # Number of instructions issued per FU type, per thread (Count)
system.cpu.statIssuedInstType_0::FloatCvt            0      0.00%     66.05% # Number of instructions issued per FU type, per thread (Count)
system.cpu.statIssuedInstType_0::FloatMult       262145      0.52%     66.58% # Number of instructions issued per FU type, per thread (Count)
system.cpu.statIssuedInstType_0::FloatMultAcc            0      0.00%     66.58% # Number of instructions issued per FU type, per thread (Count)
system.cpu.statIssuedInstType_0::FloatDiv            0      0.00%     66.58% # Number of instructions issued per FU type, per thread (Count)
system.cpu.statIssuedInstType_0::FloatMisc        61014      0.12%     66.70% # Number of instructions issued per FU type, per thread (Count)
system.cpu.statIssuedInstType_0::FloatSqrt            0      0.00%     66.70% # Number of instructions issued per FU type, per thread (Count)
system.cpu.statIssuedInstType_0::SimdAdd        63171      0.13%     66.83% # Number of instructions issued per FU type, per thread (Count)
system.cpu.statIssuedInstType_0::SimdAddAcc            0      0.00%     66.83% # Number of instructions issued per FU type, per thread (Count)
system.cpu.statIssuedInstType_0::SimdAlu       118760      0.24%     67.06% # Number of instructions issued per FU type, per thread (Count)
system.cpu.statIssuedInstType_0::SimdCmp       111192      0.22%     67.29% # Number of instructions issued per FU type, per thread (Count)
system.cpu.statIssuedInstType_0::SimdCvt            0      0.00%     67.29% # Number of instructions issued per FU type, per thread (Count)
system.cpu.statIssuedInstType_0::SimdMisc        76351      0.15%     67.44% # Number of instructions issued per FU type, per thread (Count)
system.cpu.statIssuedInstType_0::SimdMult            0      0.00%     67.44% # Number of instructions issued per FU type, per thread (Count)
system.cpu.statIssuedInstType_0::SimdMultAcc            0      0.00%     67.44% # Number of instructions issued per FU type, per thread (Count)
system.cpu.statIssuedInstType_0::SimdShift            0      0.00%     67.44% # Number of instructions issued per FU type, per thread (Count)
system.cpu.statIssuedInstType_0::SimdShiftAcc            0      0.00%     67.44% # Number of instructions issued per FU type, per thread (Count)
system.cpu.statIssuedInstType_0::SimdDiv            0      0.00%     67.44% # Number of instructions issued per FU type, per thread (Count)
system.cpu.statIssuedInstType_0::SimdSqrt            0      0.00%     67.44% # Number of instructions issued per FU type, per thread (Count)
system.cpu.statIssuedInstType_0::SimdFloatAdd            0      0.00%     67.44% # Number of instructions issued per FU type, per thread (Count)
system.cpu.statIssuedInstType_0::SimdFloatAlu            0      0.00%     67.44% # Number of instructions issued per FU type, per thread (Count)
system.cpu.statIssuedInstType_0::SimdFloatCmp            0      0.00%     67.44% # Number of instructions issued per FU type, per thread (Count)
system.cpu.statIssuedInstType_0::SimdFloatCvt            0      0.00%     67.44% # Number of instructions issued per FU type, per thread (Count)
system.cpu.statIssuedInstType_0::SimdFloatDiv            0      0.00%     67.44% # Number of instructions issued per FU type, per thread (Count)
system.cpu.statIssuedInstType_0::SimdFloatMisc            0      0.00%     67.44% # Number of instructions issued per FU type, per thread (Count)
system.cpu.statIssuedInstType_0::SimdFloatMult            0      0.00%     67.44% # Number of instructions issued per FU type, per thread (Count)
system.cpu.statIssuedInstType_0::SimdFloatMultAcc            0      0.00%     67.44% # Number of instructions issued per FU type, per thread (Count)
system.cpu.statIssuedInstType_0::SimdFloatSqrt            0      0.00%     67.44% # Number of instructions issued per FU type, per thread (Count)
system.cpu.statIssuedInstType_0::SimdReduceAdd            0      0.00%     67.44% # Number of instructions issued per FU type, per thread (Count)
system.cpu.statIssuedInstType_0::SimdReduceAlu            0      0.00%     67.44% # Number of instructions issued per FU type, per thread (Count)
system.cpu.statIssuedInstType_0::SimdReduceCmp            0      0.00%     67.44% # Number of instructions issued per FU type, per thread (Count)
system.cpu.statIssuedInstType_0::SimdFloatReduceAdd            0      0.00%     67.44% # Number of instructions issued per FU type, per thread (Count)
system.cpu.statIssuedInstType_0::SimdFloatReduceCmp            0      0.00%     67.44% # Number of instructions issued per FU type, per thread (Count)
system.cpu.statIssuedInstType_0::SimdAes            0      0.00%     67.44% # Number of instructions issued per FU type, per thread (Count)
system.cpu.statIssuedInstType_0::SimdAesMix            0      0.00%     67.44% # Number of instructions issued per FU type, per thread (Count)
system.cpu.statIssuedInstType_0::SimdSha1Hash            0      0.00%     67.44% # Number of instructions issued per FU type, per thread (Count)
system.cpu.statIssuedInstType_0::SimdSha1Hash2            0      0.00%     67.44% # Number of instructions issued per FU type, per thread (Count)
system.cpu.statIssuedInstType_0::SimdSha256Hash            0      0.00%     67.44% # Number of instructions issued per FU type, per thread (Count)
system.cpu.statIssuedInstType_0::SimdSha256Hash2            0      0.00%     67.44% # Number of instructions issued per FU type, per thread (Count)
system.cpu.statIssuedInstType_0::SimdShaSigma2            0      0.00%     67.44% # Number of instructions issued per FU type, per thread (Count)
system.cpu.statIssuedInstType_0::SimdShaSigma3            0      0.00%     67.44% # Number of instructions issued per FU type, per thread (Count)
system.cpu.statIssuedInstType_0::SimdPredAlu            0      0.00%     67.44% # Number of instructions issued per FU type, per thread (Count)
system.cpu.statIssuedInstType_0::MemRead     10609527     21.23%     88.67% # Number of instructions issued per FU type, per thread (Count)
system.cpu.statIssuedInstType_0::MemWrite      5663168     11.33%    100.00% # Number of instructions issued per FU type, per thread (Count)
system.cpu.statIssuedInstType_0::FloatMemRead            0      0.00%    100.00% # Number of instructions issued per FU type, per thread (Count)
system.cpu.statIssuedInstType_0::FloatMemWrite            0      0.00%    100.00% # Number of instructions issued per FU type, per thread (Count)
system.cpu.statIssuedInstType_0::IprAccess            0      0.00%    100.00% # Number of instructions issued per FU type, per thread (Count)
system.cpu.statIssuedInstType_0::InstPrefetch            0      0.00%    100.00% # Number of instructions issued per FU type, per thread (Count)
system.cpu.statIssuedInstType_0::total       49976746                       # Number of instructions issued per FU type, per thread (Count)
system.cpu.issueRate                         1.216493                       # Inst issue rate ((Count/Cycle))
system.cpu.fuBusy                              666577                       # FU busy when requested (Count)
system.cpu.fuBusyRate                        0.013338                       # FU busy rate (busy events/executed inst) ((Count/Count))
system.cpu.intInstQueueReads                135619859                       # Number of integer instruction queue reads (Count)
system.cpu.intInstQueueWrites                50374465                       # Number of integer instruction queue writes (Count)
system.cpu.intInstQueueWakeupAccesses        46003153                       # Number of integer instruction queue wakeup accesses (Count)
system.cpu.fpInstQueueReads                         0                       # Number of floating instruction queue reads (Count)
system.cpu.fpInstQueueWrites                        0                       # Number of floating instruction queue writes (Count)
system.cpu.fpInstQueueWakeupAccesses                0                       # Number of floating instruction queue wakeup accesses (Count)
system.cpu.vecInstQueueReads                  5621720                       # Number of vector instruction queue reads (Count)
system.cpu.vecInstQueueWrites                 2863971                       # Number of vector instruction queue writes (Count)
system.cpu.vecInstQueueWakeupAccesses         2788827                       # Number of vector instruction queue wakeup accesses (Count)
system.cpu.intAluAccesses                    47823725                       # Number of integer alu accesses (Count)
system.cpu.fpAluAccesses                            0                       # Number of floating point alu accesses (Count)
system.cpu.vecAluAccesses                     2791774                       # Number of vector alu accesses (Count)
system.cpu.numInsts                          49793156                       # Number of executed instructions (Count)
system.cpu.numLoadInsts                      10552476                       # Number of load instructions executed (Count)
system.cpu.numSquashedInsts                    183590                       # Number of squashed instructions skipped in execute (Count)
system.cpu.numSwp                                   0                       # Number of swp insts executed (Count)
system.cpu.numNop                               65805                       # Number of nop insts executed (Count)
system.cpu.numRefs                           16204243                       # Number of memory reference insts executed (Count)
system.cpu.numBranches                        6901763                       # Number of branches executed (Count)
system.cpu.numStoreInsts                      5651767                       # Number of stores executed (Count)
system.cpu.numRate                           1.212024                       # Inst execution rate ((Count/Cycle))
system.cpu.timesIdled                           25712                       # Number of times that the entire CPU went into an idle state and unscheduled itself (Count)
system.cpu.idleCycles                          485420                       # Total number of cycles that the CPU has spent unscheduled due to idling (Cycle)
system.cpu.committedInsts                    42774967                       # Number of Instructions Simulated (Count)
system.cpu.committedOps                      47115337                       # Number of Ops (including micro ops) Simulated (Count)
system.cpu.cpi                               0.960437                       # CPI: Cycles Per Instruction ((Cycle/Count))
system.cpu.totalCpi                          0.960437                       # CPI: Total CPI of All Threads ((Cycle/Count))
system.cpu.ipc                               1.041193                       # IPC: Instructions Per Cycle ((Count/Cycle))
system.cpu.totalIpc                          1.041193                       # IPC: Total IPC of All Threads ((Count/Cycle))
system.cpu.intRegfileReads                   59117832                       # Number of integer regfile reads (Count)
system.cpu.intRegfileWrites                  35724148                       # Number of integer regfile writes (Count)
system.cpu.vecRegfileReads                    2398852                       # number of vector regfile reads (Count)
system.cpu.vecRegfileWrites                   2133962                       # number of vector regfile writes (Count)
system.cpu.ccRegfileReads                    14595984                       # number of cc regfile reads (Count)
system.cpu.ccRegfileWrites                   14462720                       # number of cc regfile writes (Count)
system.cpu.miscRegfileReads                  96651857                       # number of misc regfile reads (Count)
system.cpu.miscRegfileWrites                   561209                       # number of misc regfile writes (Count)
system.cpu.MemDepUnit__0.insertedLoads        9878491                       # Number of loads inserted to the mem dependence unit. (Count)
system.cpu.MemDepUnit__0.insertedStores       5748132                       # Number of stores inserted to the mem dependence unit. (Count)
system.cpu.MemDepUnit__0.conflictingLoads      2542580                       # Number of conflicting loads. (Count)
system.cpu.MemDepUnit__0.conflictingStores      1185060                       # Number of conflicting stores. (Count)
system.cpu.MemDepUnit__1.insertedLoads              0                       # Number of loads inserted to the mem dependence unit. (Count)
system.cpu.MemDepUnit__1.insertedStores             0                       # Number of stores inserted to the mem dependence unit. (Count)
system.cpu.MemDepUnit__1.conflictingLoads            0                       # Number of conflicting loads. (Count)
system.cpu.MemDepUnit__1.conflictingStores            0                       # Number of conflicting stores. (Count)
system.cpu.MemDepUnit__2.insertedLoads              0                       # Number of loads inserted to the mem dependence unit. (Count)
system.cpu.MemDepUnit__2.insertedStores             0                       # Number of stores inserted to the mem dependence unit. (Count)
system.cpu.MemDepUnit__2.conflictingLoads            0                       # Number of conflicting loads. (Count)
system.cpu.MemDepUnit__2.conflictingStores            0                       # Number of conflicting stores. (Count)
system.cpu.MemDepUnit__3.insertedLoads              0                       # Number of loads inserted to the mem dependence unit. (Count)
system.cpu.MemDepUnit__3.insertedStores             0                       # Number of stores inserted to the mem dependence unit. (Count)
system.cpu.MemDepUnit__3.conflictingLoads            0                       # Number of conflicting loads. (Count)
system.cpu.MemDepUnit__3.conflictingStores            0                       # Number of conflicting stores. (Count)
system.cpu.branchPred.lookups                 7601255                       # Number of BP lookups (Count)
system.cpu.branchPred.condPredicted           5738052                       # Number of conditional branches predicted (Count)
system.cpu.branchPred.condIncorrect            146848                       # Number of conditional branches incorrect (Count)
system.cpu.branchPred.BTBLookups              4248506                       # Number of BTB lookups (Count)
system.cpu.branchPred.BTBHits                 4172149                       # Number of BTB hits (Count)
system.cpu.branchPred.BTBHitRatio            0.982027                       # BTB Hit Ratio (Ratio)
system.cpu.branchPred.RASUsed                  589419                       # Number of times the RAS was used to get a target. (Count)
system.cpu.branchPred.RASIncorrect                  5                       # Number of incorrect RAS predictions. (Count)
system.cpu.branchPred.indirectLookups           76471                       # Number of indirect predictor lookups. (Count)
system.cpu.branchPred.indirectHits              75624                       # Number of indirect target hits. (Count)
system.cpu.branchPred.indirectMisses              847                       # Number of indirect misses. (Count)
system.cpu.branchPred.indirectMispredicted          111                       # Number of mispredicted indirect branches. (Count)
system.cpu.commit.commitSquashedInsts         3074374                       # The number of squashed insts skipped by commit (Count)
system.cpu.commit.commitNonSpecStalls            4171                       # The number of times commit has been forced to stall to communicate backwards (Count)
system.cpu.commit.branchMispredicts            121838                       # The number of times a branch was mispredicted (Count)
system.cpu.commit.numCommittedDist::samples     40139381                       # Number of insts commited each cycle (Count)
system.cpu.commit.numCommittedDist::mean     1.175185                       # Number of insts commited each cycle (Count)
system.cpu.commit.numCommittedDist::stdev     2.406585                       # Number of insts commited each cycle (Count)
system.cpu.commit.numCommittedDist::underflows            0      0.00%      0.00% # Number of insts commited each cycle (Count)
system.cpu.commit.numCommittedDist::0        27560471     68.66%     68.66% # Number of insts commited each cycle (Count)
system.cpu.commit.numCommittedDist::1         4622490     11.52%     80.18% # Number of insts commited each cycle (Count)
system.cpu.commit.numCommittedDist::2         2157385      5.37%     85.55% # Number of insts commited each cycle (Count)
system.cpu.commit.numCommittedDist::3          853867      2.13%     87.68% # Number of insts commited each cycle (Count)
system.cpu.commit.numCommittedDist::4          586894      1.46%     89.14% # Number of insts commited each cycle (Count)
system.cpu.commit.numCommittedDist::5          234362      0.58%     89.73% # Number of insts commited each cycle (Count)
system.cpu.commit.numCommittedDist::6          183419      0.46%     90.18% # Number of insts commited each cycle (Count)
system.cpu.commit.numCommittedDist::7          471510      1.17%     91.36% # Number of insts commited each cycle (Count)
system.cpu.commit.numCommittedDist::8         3468983      8.64%    100.00% # Number of insts commited each cycle (Count)
system.cpu.commit.numCommittedDist::overflows            0      0.00%    100.00% # Number of insts commited each cycle (Count)
system.cpu.commit.numCommittedDist::min_value            0                       # Number of insts commited each cycle (Count)
system.cpu.commit.numCommittedDist::max_value            8                       # Number of insts commited each cycle (Count)
system.cpu.commit.numCommittedDist::total     40139381                       # Number of insts commited each cycle (Count)
system.cpu.commit.instsCommitted             42830825                       # Number of instructions committed (Count)
system.cpu.commit.opsCommitted               47171195                       # Number of ops (including micro ops) committed (Count)
system.cpu.commit.memRefs                    14762161                       # Number of memory references committed (Count)
system.cpu.commit.loads                       9356228                       # Number of loads committed (Count)
system.cpu.commit.amos                             20                       # Number of atomic instructions committed (Count)
system.cpu.commit.membars                          24                       # Number of memory barriers committed (Count)
system.cpu.commit.branches                    6624718                       # Number of branches committed (Count)
system.cpu.commit.vectorInstructions          2785221                       # Number of committed Vector instructions. (Count)
system.cpu.commit.floating                          0                       # Number of committed floating point instructions. (Count)
system.cpu.commit.integer                    41972714                       # Number of committed integer instructions. (Count)
system.cpu.commit.functionCalls                508101                       # Number of function calls committed. (Count)
system.cpu.commit.committedInstType_0::No_OpClass        27678      0.06%      0.06% # Class of committed instruction (Count)
system.cpu.commit.committedInstType_0::IntAlu     30612660     64.90%     64.96% # Class of committed instruction (Count)
system.cpu.commit.committedInstType_0::IntMult       641224      1.36%     66.31% # Class of committed instruction (Count)
system.cpu.commit.committedInstType_0::IntDiv       153813      0.33%     66.64% # Class of committed instruction (Count)
system.cpu.commit.committedInstType_0::FloatAdd       278528      0.59%     67.23% # Class of committed instruction (Count)
system.cpu.commit.committedInstType_0::FloatCmp        16384      0.03%     67.27% # Class of committed instruction (Count)
system.cpu.commit.committedInstType_0::FloatCvt            0      0.00%     67.27% # Class of committed instruction (Count)
system.cpu.commit.committedInstType_0::FloatMult       262144      0.56%     67.82% # Class of committed instruction (Count)
system.cpu.commit.committedInstType_0::FloatMultAcc            0      0.00%     67.82% # Class of committed instruction (Count)
system.cpu.commit.committedInstType_0::FloatDiv            0      0.00%     67.82% # Class of committed instruction (Count)
system.cpu.commit.committedInstType_0::FloatMisc        49152      0.10%     67.93% # Class of committed instruction (Count)
system.cpu.commit.committedInstType_0::FloatSqrt            0      0.00%     67.93% # Class of committed instruction (Count)
system.cpu.commit.committedInstType_0::SimdAdd        62740      0.13%     68.06% # Class of committed instruction (Count)
system.cpu.commit.committedInstType_0::SimdAddAcc            0      0.00%     68.06% # Class of committed instruction (Count)
system.cpu.commit.committedInstType_0::SimdAlu       118041      0.25%     68.31% # Class of committed instruction (Count)
system.cpu.commit.committedInstType_0::SimdCmp       110616      0.23%     68.54% # Class of committed instruction (Count)
system.cpu.commit.committedInstType_0::SimdCvt            0      0.00%     68.54% # Class of committed instruction (Count)
system.cpu.commit.committedInstType_0::SimdMisc        76054      0.16%     68.71% # Class of committed instruction (Count)
system.cpu.commit.committedInstType_0::SimdMult            0      0.00%     68.71% # Class of committed instruction (Count)
system.cpu.commit.committedInstType_0::SimdMultAcc            0      0.00%     68.71% # Class of committed instruction (Count)
system.cpu.commit.committedInstType_0::SimdShift            0      0.00%     68.71% # Class of committed instruction (Count)
system.cpu.commit.committedInstType_0::SimdShiftAcc            0      0.00%     68.71% # Class of committed instruction (Count)
system.cpu.commit.committedInstType_0::SimdDiv            0      0.00%     68.71% # Class of committed instruction (Count)
system.cpu.commit.committedInstType_0::SimdSqrt            0      0.00%     68.71% # Class of committed instruction (Count)
system.cpu.commit.committedInstType_0::SimdFloatAdd            0      0.00%     68.71% # Class of committed instruction (Count)
system.cpu.commit.committedInstType_0::SimdFloatAlu            0      0.00%     68.71% # Class of committed instruction (Count)
system.cpu.commit.committedInstType_0::SimdFloatCmp            0      0.00%     68.71% # Class of committed instruction (Count)
system.cpu.commit.committedInstType_0::SimdFloatCvt            0      0.00%     68.71% # Class of committed instruction (Count)
system.cpu.commit.committedInstType_0::SimdFloatDiv            0      0.00%     68.71% # Class of committed instruction (Count)
system.cpu.commit.committedInstType_0::SimdFloatMisc            0      0.00%     68.71% # Class of committed instruction (Count)
system.cpu.commit.committedInstType_0::SimdFloatMult            0      0.00%     68.71% # Class of committed instruction (Count)
system.cpu.commit.committedInstType_0::SimdFloatMultAcc            0      0.00%     68.71% # Class of committed instruction (Count)
system.cpu.commit.committedInstType_0::SimdFloatSqrt            0      0.00%     68.71% # Class of committed instruction (Count)
system.cpu.commit.committedInstType_0::SimdReduceAdd            0      0.00%     68.71% # Class of committed instruction (Count)
system.cpu.commit.committedInstType_0::SimdReduceAlu            0      0.00%     68.71% # Class of committed instruction (Count)
system.cpu.commit.committedInstType_0::SimdReduceCmp            0      0.00%     68.71% # Class of committed instruction (Count)
system.cpu.commit.committedInstType_0::SimdFloatReduceAdd            0      0.00%     68.71% # Class of committed instruction (Count)
system.cpu.commit.committedInstType_0::SimdFloatReduceCmp            0      0.00%     68.71% # Class of committed instruction (Count)
system.cpu.commit.committedInstType_0::SimdAes            0      0.00%     68.71% # Class of committed instruction (Count)
system.cpu.commit.committedInstType_0::SimdAesMix            0      0.00%     68.71% # Class of committed instruction (Count)
system.cpu.commit.committedInstType_0::SimdSha1Hash            0      0.00%     68.71% # Class of committed instruction (Count)
system.cpu.commit.committedInstType_0::SimdSha1Hash2            0      0.00%     68.71% # Class of committed instruction (Count)
system.cpu.commit.committedInstType_0::SimdSha256Hash            0      0.00%     68.71% # Class of committed instruction (Count)
system.cpu.commit.committedInstType_0::SimdSha256Hash2            0      0.00%     68.71% # Class of committed instruction (Count)
system.cpu.commit.committedInstType_0::SimdShaSigma2            0      0.00%     68.71% # Class of committed instruction (Count)
system.cpu.commit.committedInstType_0::SimdShaSigma3            0      0.00%     68.71% # Class of committed instruction (Count)
system.cpu.commit.committedInstType_0::SimdPredAlu            0      0.00%     68.71% # Class of committed instruction (Count)
system.cpu.commit.committedInstType_0::MemRead      9356228     19.83%     88.54% # Class of committed instruction (Count)
system.cpu.commit.committedInstType_0::MemWrite      5405933     11.46%    100.00% # Class of committed instruction (Count)
system.cpu.commit.committedInstType_0::FloatMemRead            0      0.00%    100.00% # Class of committed instruction (Count)
system.cpu.commit.committedInstType_0::FloatMemWrite            0      0.00%    100.00% # Class of committed instruction (Count)
system.cpu.commit.committedInstType_0::IprAccess            0      0.00%    100.00% # Class of committed instruction (Count)
system.cpu.commit.committedInstType_0::InstPrefetch            0      0.00%    100.00% # Class of committed instruction (Count)
system.cpu.commit.committedInstType_0::total     47171195                       # Class of committed instruction (Count)
system.cpu.commit.commitEligibleSamples       3468983                       # number cycles where commit BW limit reached (Cycle)
system.cpu.dcache.demandHits::cpu.data       11672984                       # number of demand (read+write) hits (Count)
system.cpu.dcache.demandHits::total          11672984                       # number of demand (read+write) hits (Count)
system.cpu.dcache.overallHits::cpu.data      11693499                       # number of overall hits (Count)
system.cpu.dcache.overallHits::total         11693499                       # number of overall hits (Count)
system.cpu.dcache.demandMisses::cpu.data       793398                       # number of demand (read+write) misses (Count)
system.cpu.dcache.demandMisses::total          793398                       # number of demand (read+write) misses (Count)
system.cpu.dcache.overallMisses::cpu.data       802818                       # number of overall misses (Count)
system.cpu.dcache.overallMisses::total         802818                       # number of overall misses (Count)
system.cpu.dcache.demandMissLatency::cpu.data  33469792751                       # number of demand (read+write) miss ticks (Tick)
system.cpu.dcache.demandMissLatency::total  33469792751                       # number of demand (read+write) miss ticks (Tick)
system.cpu.dcache.overallMissLatency::cpu.data  33469792751                       # number of overall miss ticks (Tick)
system.cpu.dcache.overallMissLatency::total  33469792751                       # number of overall miss ticks (Tick)
system.cpu.dcache.demandAccesses::cpu.data     12466382                       # number of demand (read+write) accesses (Count)
system.cpu.dcache.demandAccesses::total      12466382                       # number of demand (read+write) accesses (Count)
system.cpu.dcache.overallAccesses::cpu.data     12496317                       # number of overall (read+write) accesses (Count)
system.cpu.dcache.overallAccesses::total     12496317                       # number of overall (read+write) accesses (Count)
system.cpu.dcache.demandMissRate::cpu.data     0.063643                       # miss rate for demand accesses (Ratio)
system.cpu.dcache.demandMissRate::total      0.063643                       # miss rate for demand accesses (Ratio)
system.cpu.dcache.overallMissRate::cpu.data     0.064244                       # miss rate for overall accesses (Ratio)
system.cpu.dcache.overallMissRate::total     0.064244                       # miss rate for overall accesses (Ratio)
system.cpu.dcache.demandAvgMissLatency::cpu.data 42185.375752                       # average overall miss latency ((Cycle/Count))
system.cpu.dcache.demandAvgMissLatency::total 42185.375752                       # average overall miss latency ((Cycle/Count))
system.cpu.dcache.overallAvgMissLatency::cpu.data 41690.386552                       # average overall miss latency ((Cycle/Count))
system.cpu.dcache.overallAvgMissLatency::total 41690.386552                       # average overall miss latency ((Cycle/Count))
system.cpu.dcache.blockedCycles::no_mshrs      1364568                       # number of cycles access was blocked (Cycle)
system.cpu.dcache.blockedCycles::no_targets            0                       # number of cycles access was blocked (Cycle)
system.cpu.dcache.blockedCauses::no_mshrs        54779                       # number of times access was blocked (Count)
system.cpu.dcache.blockedCauses::no_targets            0                       # number of times access was blocked (Count)
system.cpu.dcache.avgBlocked::no_mshrs      24.910422                       # average number of cycles each access was blocked ((Cycle/Count))
system.cpu.dcache.avgBlocked::no_targets          nan                       # average number of cycles each access was blocked ((Cycle/Count))
system.cpu.dcache.writebacks::writebacks       108512                       # number of writebacks (Count)
system.cpu.dcache.writebacks::total            108512                       # number of writebacks (Count)
system.cpu.dcache.demandMshrHits::cpu.data       309088                       # number of demand (read+write) MSHR hits (Count)
system.cpu.dcache.demandMshrHits::total        309088                       # number of demand (read+write) MSHR hits (Count)
system.cpu.dcache.overallMshrHits::cpu.data       309088                       # number of overall MSHR hits (Count)
system.cpu.dcache.overallMshrHits::total       309088                       # number of overall MSHR hits (Count)
system.cpu.dcache.demandMshrMisses::cpu.data       484310                       # number of demand (read+write) MSHR misses (Count)
system.cpu.dcache.demandMshrMisses::total       484310                       # number of demand (read+write) MSHR misses (Count)
system.cpu.dcache.overallMshrMisses::cpu.data       489635                       # number of overall MSHR misses (Count)
system.cpu.dcache.overallMshrMisses::total       489635                       # number of overall MSHR misses (Count)
system.cpu.dcache.demandMshrMissLatency::cpu.data  23629777736                       # number of demand (read+write) MSHR miss ticks (Tick)
system.cpu.dcache.demandMshrMissLatency::total  23629777736                       # number of demand (read+write) MSHR miss ticks (Tick)
system.cpu.dcache.overallMshrMissLatency::cpu.data  23920105236                       # number of overall MSHR miss ticks (Tick)
system.cpu.dcache.overallMshrMissLatency::total  23920105236                       # number of overall MSHR miss ticks (Tick)
system.cpu.dcache.demandMshrMissRate::cpu.data     0.038849                       # mshr miss ratio for demand accesses (Ratio)
system.cpu.dcache.demandMshrMissRate::total     0.038849                       # mshr miss ratio for demand accesses (Ratio)
system.cpu.dcache.overallMshrMissRate::cpu.data     0.039182                       # mshr miss ratio for overall accesses (Ratio)
system.cpu.dcache.overallMshrMissRate::total     0.039182                       # mshr miss ratio for overall accesses (Ratio)
system.cpu.dcache.demandAvgMshrMissLatency::cpu.data 48790.604646                       # average overall mshr miss latency ((Cycle/Count))
system.cpu.dcache.demandAvgMshrMissLatency::total 48790.604646                       # average overall mshr miss latency ((Cycle/Count))
system.cpu.dcache.overallAvgMshrMissLatency::cpu.data 48852.931747                       # average overall mshr miss latency ((Cycle/Count))
system.cpu.dcache.overallAvgMshrMissLatency::total 48852.931747                       # average overall mshr miss latency ((Cycle/Count))
system.cpu.dcache.replacements                 489573                       # number of replacements (Count)
system.cpu.dcache.LoadLockedReq.hits::cpu.data            7                       # number of LoadLockedReq hits (Count)
system.cpu.dcache.LoadLockedReq.hits::total            7                       # number of LoadLockedReq hits (Count)
system.cpu.dcache.LoadLockedReq.misses::cpu.data            1                       # number of LoadLockedReq misses (Count)
system.cpu.dcache.LoadLockedReq.misses::total            1                       # number of LoadLockedReq misses (Count)
system.cpu.dcache.LoadLockedReq.missLatency::cpu.data        74500                       # number of LoadLockedReq miss ticks (Tick)
system.cpu.dcache.LoadLockedReq.missLatency::total        74500                       # number of LoadLockedReq miss ticks (Tick)
system.cpu.dcache.LoadLockedReq.accesses::cpu.data            8                       # number of LoadLockedReq accesses(hits+misses) (Count)
system.cpu.dcache.LoadLockedReq.accesses::total            8                       # number of LoadLockedReq accesses(hits+misses) (Count)
system.cpu.dcache.LoadLockedReq.missRate::cpu.data     0.125000                       # miss rate for LoadLockedReq accesses (Ratio)
system.cpu.dcache.LoadLockedReq.missRate::total     0.125000                       # miss rate for LoadLockedReq accesses (Ratio)
system.cpu.dcache.LoadLockedReq.avgMissLatency::cpu.data        74500                       # average LoadLockedReq miss latency ((Tick/Count))
system.cpu.dcache.LoadLockedReq.avgMissLatency::total        74500                       # average LoadLockedReq miss latency ((Tick/Count))
system.cpu.dcache.LoadLockedReq.mshrMisses::cpu.data            1                       # number of LoadLockedReq MSHR misses (Count)
system.cpu.dcache.LoadLockedReq.mshrMisses::total            1                       # number of LoadLockedReq MSHR misses (Count)
system.cpu.dcache.LoadLockedReq.mshrMissLatency::cpu.data        73500                       # number of LoadLockedReq MSHR miss ticks (Tick)
system.cpu.dcache.LoadLockedReq.mshrMissLatency::total        73500                       # number of LoadLockedReq MSHR miss ticks (Tick)
system.cpu.dcache.LoadLockedReq.mshrMissRate::cpu.data     0.125000                       # mshr miss rate for LoadLockedReq accesses (Ratio)
system.cpu.dcache.LoadLockedReq.mshrMissRate::total     0.125000                       # mshr miss rate for LoadLockedReq accesses (Ratio)
system.cpu.dcache.LoadLockedReq.avgMshrMissLatency::cpu.data        73500                       # average LoadLockedReq mshr miss latency ((Tick/Count))
system.cpu.dcache.LoadLockedReq.avgMshrMissLatency::total        73500                       # average LoadLockedReq mshr miss latency ((Tick/Count))
system.cpu.dcache.ReadReq.hits::cpu.data      6510185                       # number of ReadReq hits (Count)
system.cpu.dcache.ReadReq.hits::total         6510185                       # number of ReadReq hits (Count)
system.cpu.dcache.ReadReq.misses::cpu.data       550288                       # number of ReadReq misses (Count)
system.cpu.dcache.ReadReq.misses::total        550288                       # number of ReadReq misses (Count)
system.cpu.dcache.ReadReq.missLatency::cpu.data  27884787000                       # number of ReadReq miss ticks (Tick)
system.cpu.dcache.ReadReq.missLatency::total  27884787000                       # number of ReadReq miss ticks (Tick)
system.cpu.dcache.ReadReq.accesses::cpu.data      7060473                       # number of ReadReq accesses(hits+misses) (Count)
system.cpu.dcache.ReadReq.accesses::total      7060473                       # number of ReadReq accesses(hits+misses) (Count)
system.cpu.dcache.ReadReq.missRate::cpu.data     0.077939                       # miss rate for ReadReq accesses (Ratio)
system.cpu.dcache.ReadReq.missRate::total     0.077939                       # miss rate for ReadReq accesses (Ratio)
system.cpu.dcache.ReadReq.avgMissLatency::cpu.data 50673.078461                       # average ReadReq miss latency ((Tick/Count))
system.cpu.dcache.ReadReq.avgMissLatency::total 50673.078461                       # average ReadReq miss latency ((Tick/Count))
system.cpu.dcache.ReadReq.mshrHits::cpu.data       141578                       # number of ReadReq MSHR hits (Count)
system.cpu.dcache.ReadReq.mshrHits::total       141578                       # number of ReadReq MSHR hits (Count)
system.cpu.dcache.ReadReq.mshrMisses::cpu.data       408710                       # number of ReadReq MSHR misses (Count)
system.cpu.dcache.ReadReq.mshrMisses::total       408710                       # number of ReadReq MSHR misses (Count)
system.cpu.dcache.ReadReq.mshrMissLatency::cpu.data  21779282000                       # number of ReadReq MSHR miss ticks (Tick)
system.cpu.dcache.ReadReq.mshrMissLatency::total  21779282000                       # number of ReadReq MSHR miss ticks (Tick)
system.cpu.dcache.ReadReq.mshrMissRate::cpu.data     0.057887                       # mshr miss rate for ReadReq accesses (Ratio)
system.cpu.dcache.ReadReq.mshrMissRate::total     0.057887                       # mshr miss rate for ReadReq accesses (Ratio)
system.cpu.dcache.ReadReq.avgMshrMissLatency::cpu.data 53287.861809                       # average ReadReq mshr miss latency ((Tick/Count))
system.cpu.dcache.ReadReq.avgMshrMissLatency::total 53287.861809                       # average ReadReq mshr miss latency ((Tick/Count))
system.cpu.dcache.SoftPFReq.hits::cpu.data        20515                       # number of SoftPFReq hits (Count)
system.cpu.dcache.SoftPFReq.hits::total         20515                       # number of SoftPFReq hits (Count)
system.cpu.dcache.SoftPFReq.misses::cpu.data         9420                       # number of SoftPFReq misses (Count)
system.cpu.dcache.SoftPFReq.misses::total         9420                       # number of SoftPFReq misses (Count)
system.cpu.dcache.SoftPFReq.accesses::cpu.data        29935                       # number of SoftPFReq accesses(hits+misses) (Count)
system.cpu.dcache.SoftPFReq.accesses::total        29935                       # number of SoftPFReq accesses(hits+misses) (Count)
system.cpu.dcache.SoftPFReq.missRate::cpu.data     0.314682                       # miss rate for SoftPFReq accesses (Ratio)
system.cpu.dcache.SoftPFReq.missRate::total     0.314682                       # miss rate for SoftPFReq accesses (Ratio)
system.cpu.dcache.SoftPFReq.mshrMisses::cpu.data         5325                       # number of SoftPFReq MSHR misses (Count)
system.cpu.dcache.SoftPFReq.mshrMisses::total         5325                       # number of SoftPFReq MSHR misses (Count)
system.cpu.dcache.SoftPFReq.mshrMissLatency::cpu.data    290327500                       # number of SoftPFReq MSHR miss ticks (Tick)
system.cpu.dcache.SoftPFReq.mshrMissLatency::total    290327500                       # number of SoftPFReq MSHR miss ticks (Tick)
system.cpu.dcache.SoftPFReq.mshrMissRate::cpu.data     0.177885                       # mshr miss rate for SoftPFReq accesses (Ratio)
system.cpu.dcache.SoftPFReq.mshrMissRate::total     0.177885                       # mshr miss rate for SoftPFReq accesses (Ratio)
system.cpu.dcache.SoftPFReq.avgMshrMissLatency::cpu.data 54521.596244                       # average SoftPFReq mshr miss latency ((Tick/Count))
system.cpu.dcache.SoftPFReq.avgMshrMissLatency::total 54521.596244                       # average SoftPFReq mshr miss latency ((Tick/Count))
system.cpu.dcache.StoreCondReq.hits::cpu.data            4                       # number of StoreCondReq hits (Count)
system.cpu.dcache.StoreCondReq.hits::total            4                       # number of StoreCondReq hits (Count)
system.cpu.dcache.StoreCondReq.accesses::cpu.data            4                       # number of StoreCondReq accesses(hits+misses) (Count)
system.cpu.dcache.StoreCondReq.accesses::total            4                       # number of StoreCondReq accesses(hits+misses) (Count)
system.cpu.dcache.SwapReq.hits::cpu.data           19                       # number of SwapReq hits (Count)
system.cpu.dcache.SwapReq.hits::total              19                       # number of SwapReq hits (Count)
system.cpu.dcache.SwapReq.misses::cpu.data            1                       # number of SwapReq misses (Count)
system.cpu.dcache.SwapReq.misses::total             1                       # number of SwapReq misses (Count)
system.cpu.dcache.SwapReq.missLatency::cpu.data        51000                       # number of SwapReq miss ticks (Tick)
system.cpu.dcache.SwapReq.missLatency::total        51000                       # number of SwapReq miss ticks (Tick)
system.cpu.dcache.SwapReq.accesses::cpu.data           20                       # number of SwapReq accesses(hits+misses) (Count)
system.cpu.dcache.SwapReq.accesses::total           20                       # number of SwapReq accesses(hits+misses) (Count)
system.cpu.dcache.SwapReq.missRate::cpu.data     0.050000                       # miss rate for SwapReq accesses (Ratio)
system.cpu.dcache.SwapReq.missRate::total     0.050000                       # miss rate for SwapReq accesses (Ratio)
system.cpu.dcache.SwapReq.avgMissLatency::cpu.data        51000                       # average SwapReq miss latency ((Tick/Count))
system.cpu.dcache.SwapReq.avgMissLatency::total        51000                       # average SwapReq miss latency ((Tick/Count))
system.cpu.dcache.SwapReq.mshrMisses::cpu.data            1                       # number of SwapReq MSHR misses (Count)
system.cpu.dcache.SwapReq.mshrMisses::total            1                       # number of SwapReq MSHR misses (Count)
system.cpu.dcache.SwapReq.mshrMissLatency::cpu.data        50000                       # number of SwapReq MSHR miss ticks (Tick)
system.cpu.dcache.SwapReq.mshrMissLatency::total        50000                       # number of SwapReq MSHR miss ticks (Tick)
system.cpu.dcache.SwapReq.mshrMissRate::cpu.data     0.050000                       # mshr miss rate for SwapReq accesses (Ratio)
system.cpu.dcache.SwapReq.mshrMissRate::total     0.050000                       # mshr miss rate for SwapReq accesses (Ratio)
system.cpu.dcache.SwapReq.avgMshrMissLatency::cpu.data        50000                       # average SwapReq mshr miss latency ((Tick/Count))
system.cpu.dcache.SwapReq.avgMshrMissLatency::total        50000                       # average SwapReq mshr miss latency ((Tick/Count))
system.cpu.dcache.WriteLineReq.misses::cpu.data         1540                       # number of WriteLineReq misses (Count)
system.cpu.dcache.WriteLineReq.misses::total         1540                       # number of WriteLineReq misses (Count)
system.cpu.dcache.WriteLineReq.missLatency::cpu.data     30456891                       # number of WriteLineReq miss ticks (Tick)
system.cpu.dcache.WriteLineReq.missLatency::total     30456891                       # number of WriteLineReq miss ticks (Tick)
system.cpu.dcache.WriteLineReq.accesses::cpu.data         1540                       # number of WriteLineReq accesses(hits+misses) (Count)
system.cpu.dcache.WriteLineReq.accesses::total         1540                       # number of WriteLineReq accesses(hits+misses) (Count)
system.cpu.dcache.WriteLineReq.missRate::cpu.data            1                       # miss rate for WriteLineReq accesses (Ratio)
system.cpu.dcache.WriteLineReq.missRate::total            1                       # miss rate for WriteLineReq accesses (Ratio)
system.cpu.dcache.WriteLineReq.avgMissLatency::cpu.data 19777.201948                       # average WriteLineReq miss latency ((Tick/Count))
system.cpu.dcache.WriteLineReq.avgMissLatency::total 19777.201948                       # average WriteLineReq miss latency ((Tick/Count))
system.cpu.dcache.WriteLineReq.mshrMisses::cpu.data         1540                       # number of WriteLineReq MSHR misses (Count)
system.cpu.dcache.WriteLineReq.mshrMisses::total         1540                       # number of WriteLineReq MSHR misses (Count)
system.cpu.dcache.WriteLineReq.mshrMissLatency::cpu.data     28916891                       # number of WriteLineReq MSHR miss ticks (Tick)
system.cpu.dcache.WriteLineReq.mshrMissLatency::total     28916891                       # number of WriteLineReq MSHR miss ticks (Tick)
system.cpu.dcache.WriteLineReq.mshrMissRate::cpu.data            1                       # mshr miss rate for WriteLineReq accesses (Ratio)
system.cpu.dcache.WriteLineReq.mshrMissRate::total            1                       # mshr miss rate for WriteLineReq accesses (Ratio)
system.cpu.dcache.WriteLineReq.avgMshrMissLatency::cpu.data 18777.201948                       # average WriteLineReq mshr miss latency ((Tick/Count))
system.cpu.dcache.WriteLineReq.avgMshrMissLatency::total 18777.201948                       # average WriteLineReq mshr miss latency ((Tick/Count))
system.cpu.dcache.WriteReq.hits::cpu.data      5162799                       # number of WriteReq hits (Count)
system.cpu.dcache.WriteReq.hits::total        5162799                       # number of WriteReq hits (Count)
system.cpu.dcache.WriteReq.misses::cpu.data       241570                       # number of WriteReq misses (Count)
system.cpu.dcache.WriteReq.misses::total       241570                       # number of WriteReq misses (Count)
system.cpu.dcache.WriteReq.missLatency::cpu.data   5554548860                       # number of WriteReq miss ticks (Tick)
system.cpu.dcache.WriteReq.missLatency::total   5554548860                       # number of WriteReq miss ticks (Tick)
system.cpu.dcache.WriteReq.accesses::cpu.data      5404369                       # number of WriteReq accesses(hits+misses) (Count)
system.cpu.dcache.WriteReq.accesses::total      5404369                       # number of WriteReq accesses(hits+misses) (Count)
system.cpu.dcache.WriteReq.missRate::cpu.data     0.044699                       # miss rate for WriteReq accesses (Ratio)
system.cpu.dcache.WriteReq.missRate::total     0.044699                       # miss rate for WriteReq accesses (Ratio)
system.cpu.dcache.WriteReq.avgMissLatency::cpu.data 22993.537525                       # average WriteReq miss latency ((Tick/Count))
system.cpu.dcache.WriteReq.avgMissLatency::total 22993.537525                       # average WriteReq miss latency ((Tick/Count))
system.cpu.dcache.WriteReq.mshrHits::cpu.data       167510                       # number of WriteReq MSHR hits (Count)
system.cpu.dcache.WriteReq.mshrHits::total       167510                       # number of WriteReq MSHR hits (Count)
system.cpu.dcache.WriteReq.mshrMisses::cpu.data        74060                       # number of WriteReq MSHR misses (Count)
system.cpu.dcache.WriteReq.mshrMisses::total        74060                       # number of WriteReq MSHR misses (Count)
system.cpu.dcache.WriteReq.mshrMissLatency::cpu.data   1821578845                       # number of WriteReq MSHR miss ticks (Tick)
system.cpu.dcache.WriteReq.mshrMissLatency::total   1821578845                       # number of WriteReq MSHR miss ticks (Tick)
system.cpu.dcache.WriteReq.mshrMissRate::cpu.data     0.013704                       # mshr miss rate for WriteReq accesses (Ratio)
system.cpu.dcache.WriteReq.mshrMissRate::total     0.013704                       # mshr miss rate for WriteReq accesses (Ratio)
system.cpu.dcache.WriteReq.avgMshrMissLatency::cpu.data 24595.987645                       # average WriteReq mshr miss latency ((Tick/Count))
system.cpu.dcache.WriteReq.avgMshrMissLatency::total 24595.987645                       # average WriteReq mshr miss latency ((Tick/Count))
system.cpu.dcache.power_state.pwrStateResidencyTicks::UNDEFINED  20541328500                       # Cumulative time (in ticks) in various power states (Tick)
system.cpu.dcache.tags.tagsInUse            63.989517                       # Average ticks per tags in use ((Tick/Count))
system.cpu.dcache.tags.totalRefs             12183166                       # Total number of references to valid blocks. (Count)
system.cpu.dcache.tags.sampledRefs             489637                       # Sample count of references to valid blocks. (Count)
system.cpu.dcache.tags.avgRefs              24.882037                       # Average number of references to valid blocks. ((Count/Count))
system.cpu.dcache.tags.warmupTick              145000                       # The tick when the warmup percentage was hit. (Tick)
system.cpu.dcache.tags.occupancies::cpu.data    63.989517                       # Average occupied blocks per tick, per requestor ((Count/Tick))
system.cpu.dcache.tags.avgOccs::cpu.data     0.999836                       # Average percentage of cache occupancy ((Ratio/Tick))
system.cpu.dcache.tags.avgOccs::total        0.999836                       # Average percentage of cache occupancy ((Ratio/Tick))
system.cpu.dcache.tags.occupanciesTaskId::1024           64                       # Occupied blocks per task id (Count)
system.cpu.dcache.tags.ageTaskId_1024::0           55                       # Occupied blocks per task id, per block age (Count)
system.cpu.dcache.tags.ageTaskId_1024::1            9                       # Occupied blocks per task id, per block age (Count)
system.cpu.dcache.tags.ratioOccsTaskId::1024            1                       # Ratio of occupied blocks and all blocks, per task id (Ratio)
system.cpu.dcache.tags.tagAccesses           25482335                       # Number of tag accesses (Count)
system.cpu.dcache.tags.dataAccesses          25482335                       # Number of data accesses (Count)
system.cpu.dcache.tags.power_state.pwrStateResidencyTicks::UNDEFINED  20541328500                       # Cumulative time (in ticks) in various power states (Tick)
system.cpu.decode.idleCycles                  5338425                       # Number of cycles decode is idle (Cycle)
system.cpu.decode.blockedCycles              26690158                       # Number of cycles decode is blocked (Cycle)
system.cpu.decode.runCycles                   6466869                       # Number of cycles decode is running (Cycle)
system.cpu.decode.unblockCycles               1974423                       # Number of cycles decode is unblocking (Cycle)
system.cpu.decode.squashCycles                 127363                       # Number of cycles decode is squashing (Cycle)
system.cpu.decode.branchResolved              4085646                       # Number of times decode resolved a branch (Count)
system.cpu.decode.branchMispred                 25019                       # Number of times decode detected a branch misprediction (Count)
system.cpu.decode.decodedInsts               51150527                       # Number of instructions handled by decode (Count)
system.cpu.decode.squashedInsts                105402                       # Number of squashed instructions handled by decode (Count)
system.cpu.fetch.icacheStallCycles            7983683                       # Number of cycles fetch is stalled on an Icache miss (Cycle)
system.cpu.fetch.insts                       48099830                       # Number of instructions fetch has processed (Count)
system.cpu.fetch.branches                     7601255                       # Number of branches that fetch encountered (Count)
system.cpu.fetch.predictedBranches            4837192                       # Number of branches that fetch has predicted taken (Count)
system.cpu.fetch.cycles                      32461062                       # Number of cycles fetch has run and was not squashing or blocked (Cycle)
system.cpu.fetch.squashCycles                  304746                       # Number of cycles fetch has spent squashing (Cycle)
system.cpu.fetch.miscStallCycles                   61                       # Number of cycles fetch has spent waiting on interrupts, or bad addresses, or out of MSHRs (Cycle)
system.cpu.fetch.icacheWaitRetryStallCycles           59                       # Number of stall cycles due to full MSHR (Cycle)
system.cpu.fetch.cacheLines                   6951925                       # Number of cache lines fetched (Count)
system.cpu.fetch.icacheSquashes                 49230                       # Number of outstanding Icache misses that were squashed (Count)
system.cpu.fetch.nisnDist::samples           40597238                       # Number of instructions fetched each cycle (Total) (Count)
system.cpu.fetch.nisnDist::mean              1.308409                       # Number of instructions fetched each cycle (Total) (Count)
system.cpu.fetch.nisnDist::stdev             2.520155                       # Number of instructions fetched each cycle (Total) (Count)
system.cpu.fetch.nisnDist::underflows               0      0.00%      0.00% # Number of instructions fetched each cycle (Total) (Count)
system.cpu.fetch.nisnDist::0                 29911473     73.68%     73.68% # Number of instructions fetched each cycle (Total) (Count)
system.cpu.fetch.nisnDist::1                   847923      2.09%     75.77% # Number of instructions fetched each cycle (Total) (Count)
system.cpu.fetch.nisnDist::2                  1394971      3.44%     79.20% # Number of instructions fetched each cycle (Total) (Count)
system.cpu.fetch.nisnDist::3                  1250121      3.08%     82.28% # Number of instructions fetched each cycle (Total) (Count)
system.cpu.fetch.nisnDist::4                  1362048      3.36%     85.64% # Number of instructions fetched each cycle (Total) (Count)
system.cpu.fetch.nisnDist::5                  1400167      3.45%     89.09% # Number of instructions fetched each cycle (Total) (Count)
system.cpu.fetch.nisnDist::6                   883194      2.18%     91.26% # Number of instructions fetched each cycle (Total) (Count)
system.cpu.fetch.nisnDist::7                   397364      0.98%     92.24% # Number of instructions fetched each cycle (Total) (Count)
system.cpu.fetch.nisnDist::8                  3149977      7.76%    100.00% # Number of instructions fetched each cycle (Total) (Count)
system.cpu.fetch.nisnDist::overflows                0      0.00%    100.00% # Number of instructions fetched each cycle (Total) (Count)
system.cpu.fetch.nisnDist::min_value                0                       # Number of instructions fetched each cycle (Total) (Count)
system.cpu.fetch.nisnDist::max_value                8                       # Number of instructions fetched each cycle (Total) (Count)
system.cpu.fetch.nisnDist::total             40597238                       # Number of instructions fetched each cycle (Total) (Count)
system.cpu.fetch.branchRate                  0.185023                       # Number of branch fetches per cycle (Ratio)
system.cpu.fetch.rate                        1.170806                       # Number of inst fetches per cycle ((Count/Cycle))
system.cpu.icache.demandHits::cpu.inst        6913958                       # number of demand (read+write) hits (Count)
system.cpu.icache.demandHits::total           6913958                       # number of demand (read+write) hits (Count)
system.cpu.icache.overallHits::cpu.inst       6913958                       # number of overall hits (Count)
system.cpu.icache.overallHits::total          6913958                       # number of overall hits (Count)
system.cpu.icache.demandMisses::cpu.inst        37966                       # number of demand (read+write) misses (Count)
system.cpu.icache.demandMisses::total           37966                       # number of demand (read+write) misses (Count)
system.cpu.icache.overallMisses::cpu.inst        37966                       # number of overall misses (Count)
system.cpu.icache.overallMisses::total          37966                       # number of overall misses (Count)
system.cpu.icache.demandMissLatency::cpu.inst    905084998                       # number of demand (read+write) miss ticks (Tick)
system.cpu.icache.demandMissLatency::total    905084998                       # number of demand (read+write) miss ticks (Tick)
system.cpu.icache.overallMissLatency::cpu.inst    905084998                       # number of overall miss ticks (Tick)
system.cpu.icache.overallMissLatency::total    905084998                       # number of overall miss ticks (Tick)
system.cpu.icache.demandAccesses::cpu.inst      6951924                       # number of demand (read+write) accesses (Count)
system.cpu.icache.demandAccesses::total       6951924                       # number of demand (read+write) accesses (Count)
system.cpu.icache.overallAccesses::cpu.inst      6951924                       # number of overall (read+write) accesses (Count)
system.cpu.icache.overallAccesses::total      6951924                       # number of overall (read+write) accesses (Count)
system.cpu.icache.demandMissRate::cpu.inst     0.005461                       # miss rate for demand accesses (Ratio)
system.cpu.icache.demandMissRate::total      0.005461                       # miss rate for demand accesses (Ratio)
system.cpu.icache.overallMissRate::cpu.inst     0.005461                       # miss rate for overall accesses (Ratio)
system.cpu.icache.overallMissRate::total     0.005461                       # miss rate for overall accesses (Ratio)
system.cpu.icache.demandAvgMissLatency::cpu.inst 23839.356213                       # average overall miss latency ((Cycle/Count))
system.cpu.icache.demandAvgMissLatency::total 23839.356213                       # average overall miss latency ((Cycle/Count))
system.cpu.icache.overallAvgMissLatency::cpu.inst 23839.356213                       # average overall miss latency ((Cycle/Count))
system.cpu.icache.overallAvgMissLatency::total 23839.356213                       # average overall miss latency ((Cycle/Count))
system.cpu.icache.blockedCycles::no_mshrs          742                       # number of cycles access was blocked (Cycle)
system.cpu.icache.blockedCycles::no_targets            0                       # number of cycles access was blocked (Cycle)
system.cpu.icache.blockedCauses::no_mshrs           12                       # number of times access was blocked (Count)
system.cpu.icache.blockedCauses::no_targets            0                       # number of times access was blocked (Count)
system.cpu.icache.avgBlocked::no_mshrs      61.833333                       # average number of cycles each access was blocked ((Cycle/Count))
system.cpu.icache.avgBlocked::no_targets          nan                       # average number of cycles each access was blocked ((Cycle/Count))
system.cpu.icache.writebacks::writebacks        37027                       # number of writebacks (Count)
system.cpu.icache.writebacks::total             37027                       # number of writebacks (Count)
system.cpu.icache.demandMshrHits::cpu.inst          457                       # number of demand (read+write) MSHR hits (Count)
system.cpu.icache.demandMshrHits::total           457                       # number of demand (read+write) MSHR hits (Count)
system.cpu.icache.overallMshrHits::cpu.inst          457                       # number of overall MSHR hits (Count)
system.cpu.icache.overallMshrHits::total          457                       # number of overall MSHR hits (Count)
system.cpu.icache.demandMshrMisses::cpu.inst        37509                       # number of demand (read+write) MSHR misses (Count)
system.cpu.icache.demandMshrMisses::total        37509                       # number of demand (read+write) MSHR misses (Count)
system.cpu.icache.overallMshrMisses::cpu.inst        37509                       # number of overall MSHR misses (Count)
system.cpu.icache.overallMshrMisses::total        37509                       # number of overall MSHR misses (Count)
system.cpu.icache.demandMshrMissLatency::cpu.inst    851110998                       # number of demand (read+write) MSHR miss ticks (Tick)
system.cpu.icache.demandMshrMissLatency::total    851110998                       # number of demand (read+write) MSHR miss ticks (Tick)
system.cpu.icache.overallMshrMissLatency::cpu.inst    851110998                       # number of overall MSHR miss ticks (Tick)
system.cpu.icache.overallMshrMissLatency::total    851110998                       # number of overall MSHR miss ticks (Tick)
system.cpu.icache.demandMshrMissRate::cpu.inst     0.005395                       # mshr miss ratio for demand accesses (Ratio)
system.cpu.icache.demandMshrMissRate::total     0.005395                       # mshr miss ratio for demand accesses (Ratio)
system.cpu.icache.overallMshrMissRate::cpu.inst     0.005395                       # mshr miss ratio for overall accesses (Ratio)
system.cpu.icache.overallMshrMissRate::total     0.005395                       # mshr miss ratio for overall accesses (Ratio)
system.cpu.icache.demandAvgMshrMissLatency::cpu.inst 22690.847477                       # average overall mshr miss latency ((Cycle/Count))
system.cpu.icache.demandAvgMshrMissLatency::total 22690.847477                       # average overall mshr miss latency ((Cycle/Count))
system.cpu.icache.overallAvgMshrMissLatency::cpu.inst 22690.847477                       # average overall mshr miss latency ((Cycle/Count))
system.cpu.icache.overallAvgMshrMissLatency::total 22690.847477                       # average overall mshr miss latency ((Cycle/Count))
system.cpu.icache.replacements                  37027                       # number of replacements (Count)
system.cpu.icache.ReadReq.hits::cpu.inst      6913958                       # number of ReadReq hits (Count)
system.cpu.icache.ReadReq.hits::total         6913958                       # number of ReadReq hits (Count)
system.cpu.icache.ReadReq.misses::cpu.inst        37966                       # number of ReadReq misses (Count)
system.cpu.icache.ReadReq.misses::total         37966                       # number of ReadReq misses (Count)
system.cpu.icache.ReadReq.missLatency::cpu.inst    905084998                       # number of ReadReq miss ticks (Tick)
system.cpu.icache.ReadReq.missLatency::total    905084998                       # number of ReadReq miss ticks (Tick)
system.cpu.icache.ReadReq.accesses::cpu.inst      6951924                       # number of ReadReq accesses(hits+misses) (Count)
system.cpu.icache.ReadReq.accesses::total      6951924                       # number of ReadReq accesses(hits+misses) (Count)
system.cpu.icache.ReadReq.missRate::cpu.inst     0.005461                       # miss rate for ReadReq accesses (Ratio)
system.cpu.icache.ReadReq.missRate::total     0.005461                       # miss rate for ReadReq accesses (Ratio)
system.cpu.icache.ReadReq.avgMissLatency::cpu.inst 23839.356213                       # average ReadReq miss latency ((Tick/Count))
system.cpu.icache.ReadReq.avgMissLatency::total 23839.356213                       # average ReadReq miss latency ((Tick/Count))
system.cpu.icache.ReadReq.mshrHits::cpu.inst          457                       # number of ReadReq MSHR hits (Count)
system.cpu.icache.ReadReq.mshrHits::total          457                       # number of ReadReq MSHR hits (Count)
system.cpu.icache.ReadReq.mshrMisses::cpu.inst        37509                       # number of ReadReq MSHR misses (Count)
system.cpu.icache.ReadReq.mshrMisses::total        37509                       # number of ReadReq MSHR misses (Count)
system.cpu.icache.ReadReq.mshrMissLatency::cpu.inst    851110998                       # number of ReadReq MSHR miss ticks (Tick)
system.cpu.icache.ReadReq.mshrMissLatency::total    851110998                       # number of ReadReq MSHR miss ticks (Tick)
system.cpu.icache.ReadReq.mshrMissRate::cpu.inst     0.005395                       # mshr miss rate for ReadReq accesses (Ratio)
system.cpu.icache.ReadReq.mshrMissRate::total     0.005395                       # mshr miss rate for ReadReq accesses (Ratio)
system.cpu.icache.ReadReq.avgMshrMissLatency::cpu.inst 22690.847477                       # average ReadReq mshr miss latency ((Tick/Count))
system.cpu.icache.ReadReq.avgMshrMissLatency::total 22690.847477                       # average ReadReq mshr miss latency ((Tick/Count))
system.cpu.icache.power_state.pwrStateResidencyTicks::UNDEFINED  20541328500                       # Cumulative time (in ticks) in various power states (Tick)
system.cpu.icache.tags.tagsInUse           407.227307                       # Average ticks per tags in use ((Tick/Count))
system.cpu.icache.tags.totalRefs              6951467                       # Total number of references to valid blocks. (Count)
system.cpu.icache.tags.sampledRefs              37509                       # Sample count of references to valid blocks. (Count)
system.cpu.icache.tags.avgRefs             185.327975                       # Average number of references to valid blocks. ((Count/Count))
system.cpu.icache.tags.warmupTick               77000                       # The tick when the warmup percentage was hit. (Tick)
system.cpu.icache.tags.occupancies::cpu.inst   407.227307                       # Average occupied blocks per tick, per requestor ((Count/Tick))
system.cpu.icache.tags.avgOccs::cpu.inst     0.795366                       # Average percentage of cache occupancy ((Ratio/Tick))
system.cpu.icache.tags.avgOccs::total        0.795366                       # Average percentage of cache occupancy ((Ratio/Tick))
system.cpu.icache.tags.occupanciesTaskId::1024          482                       # Occupied blocks per task id (Count)
system.cpu.icache.tags.ageTaskId_1024::0          126                       # Occupied blocks per task id, per block age (Count)
system.cpu.icache.tags.ageTaskId_1024::1           24                       # Occupied blocks per task id, per block age (Count)
system.cpu.icache.tags.ageTaskId_1024::2            4                       # Occupied blocks per task id, per block age (Count)
system.cpu.icache.tags.ageTaskId_1024::3           78                       # Occupied blocks per task id, per block age (Count)
system.cpu.icache.tags.ageTaskId_1024::4          250                       # Occupied blocks per task id, per block age (Count)
system.cpu.icache.tags.ratioOccsTaskId::1024     0.941406                       # Ratio of occupied blocks and all blocks, per task id (Ratio)
system.cpu.icache.tags.tagAccesses           13941357                       # Number of tag accesses (Count)
system.cpu.icache.tags.dataAccesses          13941357                       # Number of data accesses (Count)
system.cpu.icache.tags.power_state.pwrStateResidencyTicks::UNDEFINED  20541328500                       # Cumulative time (in ticks) in various power states (Tick)
[...]
system.mem_ctrls.dram.bwRead::cpu.inst      116865664                       # Total read bandwidth from this memory ((Byte/Second))
system.mem_ctrls.dram.bwRead::cpu.data     1503189241                       # Total read bandwidth from this memory ((Byte/Second))
system.mem_ctrls.dram.bwRead::total        1620054905                       # Total read bandwidth from this memory ((Byte/Second))
system.mem_ctrls.dram.bwInstRead::cpu.inst    116865664                       # Instruction read bandwidth from this memory ((Byte/Second))
system.mem_ctrls.dram.bwInstRead::total     116865664                       # Instruction read bandwidth from this memory ((Byte/Second))
system.mem_ctrls.dram.bwWrite::writebacks    338087578                       # Write bandwidth from this memory ((Byte/Second))
system.mem_ctrls.dram.bwWrite::total        338087578                       # Write bandwidth from this memory ((Byte/Second))
system.mem_ctrls.dram.bwTotal::writebacks    338087578                       # Total bandwidth to/from this memory ((Byte/Second))
system.mem_ctrls.dram.bwTotal::cpu.inst     116865664                       # Total bandwidth to/from this memory ((Byte/Second))
system.mem_ctrls.dram.bwTotal::cpu.data    1503189241                       # Total bandwidth to/from this memory ((Byte/Second))
system.mem_ctrls.dram.bwTotal::total       1958142483                       # Total bandwidth to/from this memory ((Byte/Second))
system.mem_ctrls.dram.readBursts               384396                       # Number of DRAM read bursts (Count)
system.mem_ctrls.dram.writeBursts               11549                       # Number of DRAM write bursts (Count)
system.mem_ctrls.dram.perBankRdBursts::0        15597                       # Per bank write bursts (Count)
system.mem_ctrls.dram.perBankRdBursts::1        14719                       # Per bank write bursts (Count)
system.mem_ctrls.dram.perBankRdBursts::2        14007                       # Per bank write bursts (Count)
system.mem_ctrls.dram.perBankRdBursts::3        13992                       # Per bank write bursts (Count)
system.mem_ctrls.dram.perBankRdBursts::4         1142                       # Per bank write bursts (Count)
system.mem_ctrls.dram.perBankRdBursts::5         2041                       # Per bank write bursts (Count)
system.mem_ctrls.dram.perBankRdBursts::6         2079                       # Per bank write bursts (Count)
system.mem_ctrls.dram.perBankRdBursts::7         1926                       # Per bank write bursts (Count)
system.mem_ctrls.dram.perBankRdBursts::8        25384                       # Per bank write bursts (Count)
system.mem_ctrls.dram.perBankRdBursts::9        66326                       # Per bank write bursts (Count)
system.mem_ctrls.dram.perBankRdBursts::10        65945                       # Per bank write bursts (Count)
system.mem_ctrls.dram.perBankRdBursts::11        66041                       # Per bank write bursts (Count)
system.mem_ctrls.dram.perBankRdBursts::12        65645                       # Per bank write bursts (Count)
system.mem_ctrls.dram.perBankRdBursts::13         1262                       # Per bank write bursts (Count)
system.mem_ctrls.dram.perBankRdBursts::14        21769                       # Per bank write bursts (Count)
system.mem_ctrls.dram.perBankRdBursts::15         6521                       # Per bank write bursts (Count)
system.mem_ctrls.dram.perBankWrBursts::0          522                       # Per bank write bursts (Count)
system.mem_ctrls.dram.perBankWrBursts::1          528                       # Per bank write bursts (Count)
system.mem_ctrls.dram.perBankWrBursts::2         2513                       # Per bank write bursts (Count)
system.mem_ctrls.dram.perBankWrBursts::3         1145                       # Per bank write bursts (Count)
system.mem_ctrls.dram.perBankWrBursts::4          447                       # Per bank write bursts (Count)
system.mem_ctrls.dram.perBankWrBursts::5          595                       # Per bank write bursts (Count)
system.mem_ctrls.dram.perBankWrBursts::6          637                       # Per bank write bursts (Count)
system.mem_ctrls.dram.perBankWrBursts::7          523                       # Per bank write bursts (Count)
system.mem_ctrls.dram.perBankWrBursts::8          583                       # Per bank write bursts (Count)
system.mem_ctrls.dram.perBankWrBursts::9          639                       # Per bank write bursts (Count)
system.mem_ctrls.dram.perBankWrBursts::10          521                       # Per bank write bursts (Count)
system.mem_ctrls.dram.perBankWrBursts::11          643                       # Per bank write bursts (Count)
system.mem_ctrls.dram.perBankWrBursts::12          542                       # Per bank write bursts (Count)
system.mem_ctrls.dram.perBankWrBursts::13          568                       # Per bank write bursts (Count)
system.mem_ctrls.dram.perBankWrBursts::14          541                       # Per bank write bursts (Count)
system.mem_ctrls.dram.perBankWrBursts::15          602                       # Per bank write bursts (Count)
system.mem_ctrls.dram.totQLat              2130740500                       # Total ticks spent queuing (Tick)
system.mem_ctrls.dram.totBusLat            1921980000                       # Total ticks spent in databus transfers (Tick)
system.mem_ctrls.dram.totMemAccLat         9338165500                       # Total ticks spent from burst creation until serviced by the DRAM (Tick)
system.mem_ctrls.dram.avgQLat                 5543.09                       # Average queueing delay per DRAM burst ((Tick/Count))
system.mem_ctrls.dram.avgBusLat               5000.00                       # Average bus latency per DRAM burst ((Tick/Count))
system.mem_ctrls.dram.avgMemAccLat           24293.09                       # Average memory access latency per DRAM burst ((Tick/Count))
system.mem_ctrls.dram.readRowHits              340328                       # Number of row buffer hits during reads (Count)
system.mem_ctrls.dram.writeRowHits              10510                       # Number of row buffer hits during writes (Count)
system.mem_ctrls.dram.readRowHitRate            88.54                       # Row buffer hit rate for reads (Ratio)
system.mem_ctrls.dram.writeRowHitRate           91.00                       # Row buffer hit rate for writes (Ratio)
system.mem_ctrls.dram.bytesPerActivate::samples        45097                       # Bytes accessed per row activation (Byte)
system.mem_ctrls.dram.bytesPerActivate::mean   561.875069                       # Bytes accessed per row activation (Byte)
system.mem_ctrls.dram.bytesPerActivate::gmean   349.732268                       # Bytes accessed per row activation (Byte)
system.mem_ctrls.dram.bytesPerActivate::stdev   416.139315                       # Bytes accessed per row activation (Byte)
system.mem_ctrls.dram.bytesPerActivate::0-127         9168     20.33%     20.33% # Bytes accessed per row activation (Byte)
system.mem_ctrls.dram.bytesPerActivate::128-255         7247     16.07%     36.40% # Bytes accessed per row activation (Byte)
system.mem_ctrls.dram.bytesPerActivate::256-383         4011      8.89%     45.29% # Bytes accessed per row activation (Byte)
system.mem_ctrls.dram.bytesPerActivate::384-511         1202      2.67%     47.96% # Bytes accessed per row activation (Byte)
system.mem_ctrls.dram.bytesPerActivate::512-639         1378      3.06%     51.01% # Bytes accessed per row activation (Byte)
system.mem_ctrls.dram.bytesPerActivate::640-767         2251      4.99%     56.01% # Bytes accessed per row activation (Byte)
system.mem_ctrls.dram.bytesPerActivate::768-895         1540      3.41%     59.42% # Bytes accessed per row activation (Byte)
system.mem_ctrls.dram.bytesPerActivate::896-1023         1363      3.02%     62.44% # Bytes accessed per row activation (Byte)
system.mem_ctrls.dram.bytesPerActivate::1024-1151        16937     37.56%    100.00% # Bytes accessed per row activation (Byte)
system.mem_ctrls.dram.bytesPerActivate::total        45097                       # Bytes accessed per row activation (Byte)
system.mem_ctrls.dram.bytesRead              24601344                       # Total bytes read (Byte)
system.mem_ctrls.dram.bytesWritten             739136                       # Total bytes written (Byte)
system.mem_ctrls.dram.avgRdBW             1197.651067                       # Average DRAM read bandwidth in MiBytes/s ((Byte/Second))
system.mem_ctrls.dram.avgWrBW               35.982872                       # Average DRAM write bandwidth in MiBytes/s ((Byte/Second))
system.mem_ctrls.dram.peakBW                 12800.00                       # Theoretical peak bandwidth in MiByte/s ((Byte/Second))
system.mem_ctrls.dram.busUtil                    9.64                       # Data bus utilization in percentage (Ratio)
system.mem_ctrls.dram.busUtilRead                9.36                       # Data bus utilization in percentage for reads (Ratio)
system.mem_ctrls.dram.busUtilWrite               0.28                       # Data bus utilization in percentage for writes (Ratio)
system.mem_ctrls.dram.pageHitRate               88.61                       # Row buffer hit rate, read and write combined (Ratio)
system.mem_ctrls.dram.power_state.pwrStateResidencyTicks::UNDEFINED  20541328500                       # Cumulative time (in ticks) in various power states (Tick)
system.mem_ctrls.dram.rank0.actEnergy       119573580                       # Energy for activate commands per rank (pJ) (Joule)
system.mem_ctrls.dram.rank0.preEnergy        63539685                       # Energy for precharge commands per rank (pJ) (Joule)
system.mem_ctrls.dram.rank0.readEnergy      467691420                       # Energy for read commands per rank (pJ) (Joule)
system.mem_ctrls.dram.rank0.writeEnergy      36070200                       # Energy for write commands per rank (pJ) (Joule)
system.mem_ctrls.dram.rank0.refreshEnergy 1621420320.000000                       # Energy for refresh commands per rank (pJ) (Joule)
system.mem_ctrls.dram.rank0.actBackEnergy   8424706020                       # Energy for active background per rank (pJ) (Joule)
system.mem_ctrls.dram.rank0.preBackEnergy    793380960                       # Energy for precharge background per rank (pJ) (Joule)
system.mem_ctrls.dram.rank0.actPowerDownEnergy            0                       # Energy for active power-down per rank (pJ) (Joule)
system.mem_ctrls.dram.rank0.prePowerDownEnergy            0                       # Energy for precharge power-down per rank (pJ) (Joule)
system.mem_ctrls.dram.rank0.selfRefreshEnergy            0                       # Energy for self refresh per rank (pJ) (Joule)
system.mem_ctrls.dram.rank0.totalEnergy   11526382185                       # Total energy per rank (pJ) (Joule)
system.mem_ctrls.dram.rank0.averagePower   561.131291                       # Core power per rank (mW) (Watt)
system.mem_ctrls.dram.rank0.totalIdleTime            0                       # Total Idle time Per DRAM Rank (Tick)
system.mem_ctrls.dram.rank0.pwrStateTime::IDLE   1990294000                       # Time in different power states (Tick)
system.mem_ctrls.dram.rank0.pwrStateTime::REF    685880000                       # Time in different power states (Tick)
system.mem_ctrls.dram.rank0.pwrStateTime::SREF            0                       # Time in different power states (Tick)
system.mem_ctrls.dram.rank0.pwrStateTime::PRE_PDN            0                       # Time in different power states (Tick)
system.mem_ctrls.dram.rank0.pwrStateTime::ACT  17865154500                       # Time in different power states (Tick)
system.mem_ctrls.dram.rank0.pwrStateTime::ACT_PDN            0                       # Time in different power states (Tick)
system.mem_ctrls.dram.rank1.actEnergy       202490400                       # Energy for activate commands per rank (pJ) (Joule)
system.mem_ctrls.dram.rank1.preEnergy       107603430                       # Energy for precharge commands per rank (pJ) (Joule)
system.mem_ctrls.dram.rank1.readEnergy     2276896020                       # Energy for read commands per rank (pJ) (Joule)
system.mem_ctrls.dram.rank1.writeEnergy      24215580                       # Energy for write commands per rank (pJ) (Joule)
system.mem_ctrls.dram.rank1.refreshEnergy 1621420320.000000                       # Energy for refresh commands per rank (pJ) (Joule)
system.mem_ctrls.dram.rank1.actBackEnergy   8957440560                       # Energy for active background per rank (pJ) (Joule)
system.mem_ctrls.dram.rank1.preBackEnergy    344762400                       # Energy for precharge background per rank (pJ) (Joule)
system.mem_ctrls.dram.rank1.actPowerDownEnergy            0                       # Energy for active power-down per rank (pJ) (Joule)
system.mem_ctrls.dram.rank1.prePowerDownEnergy            0                       # Energy for precharge power-down per rank (pJ) (Joule)
system.mem_ctrls.dram.rank1.selfRefreshEnergy            0                       # Energy for self refresh per rank (pJ) (Joule)
system.mem_ctrls.dram.rank1.totalEnergy   13534828710                       # Total energy per rank (pJ) (Joule)
system.mem_ctrls.dram.rank1.averagePower   658.907174                       # Core power per rank (mW) (Watt)
system.mem_ctrls.dram.rank1.totalIdleTime            0                       # Total Idle time Per DRAM Rank (Tick)
system.mem_ctrls.dram.rank1.pwrStateTime::IDLE    820982250                       # Time in different power states (Tick)
system.mem_ctrls.dram.rank1.pwrStateTime::REF    685880000                       # Time in different power states (Tick)
system.mem_ctrls.dram.rank1.pwrStateTime::SREF            0                       # Time in different power states (Tick)
system.mem_ctrls.dram.rank1.pwrStateTime::PRE_PDN            0                       # Time in different power states (Tick)
system.mem_ctrls.dram.rank1.pwrStateTime::ACT  19034466250                       # Time in different power states (Tick)
system.mem_ctrls.dram.rank1.pwrStateTime::ACT_PDN            0                       # Time in different power states (Tick)
system.mem_ctrls.power_state.pwrStateResidencyTicks::UNDEFINED  20541328500                       # Cumulative time (in ticks) in various power states (Tick)
system.membus.transDist::ReadResp              451427                       # Transaction distribution (Count)
system.membus.transDist::WritebackDirty        108512                       # Transaction distribution (Count)
system.membus.transDist::WritebackClean         37027                       # Transaction distribution (Count)
system.membus.transDist::CleanEvict            381061                       # Transaction distribution (Count)
system.membus.transDist::ReadExReq              68543                       # Transaction distribution (Count)
system.membus.transDist::ReadExResp             68543                       # Transaction distribution (Count)
system.membus.transDist::ReadCleanReq           37509                       # Transaction distribution (Count)
system.membus.transDist::ReadSharedReq         413918                       # Transaction distribution (Count)
system.membus.transDist::InvalidateReq           7176                       # Transaction distribution (Count)
system.membus.pktCount_system.cpu.icache.mem_side_port::system.mem_ctrls.port       112045                       # Packet count per connected requestor and responder (Count)
system.membus.pktCount_system.cpu.dcache.mem_side_port::system.mem_ctrls.port      1461671                       # Packet count per connected requestor and responder (Count)
system.membus.pktCount::total                 1573716                       # Packet count per connected requestor and responder (Count)
system.membus.pktSize_system.cpu.icache.mem_side_port::system.mem_ctrls.port      4770304                       # Cumulative packet size per connected requestor and responder (Byte)
system.membus.pktSize_system.cpu.dcache.mem_side_port::system.mem_ctrls.port     37822272                       # Cumulative packet size per connected requestor and responder (Byte)
system.membus.pktSize::total                 42592576                       # Cumulative packet size per connected requestor and responder (Byte)
system.membus.snoops                                0                       # Total snoops (Count)
system.membus.snoopTraffic                          0                       # Total snoop traffic (Byte)
system.membus.snoopFanout::samples             527146                       # Request fanout histogram (Count)
system.membus.snoopFanout::mean              0.000004                       # Request fanout histogram (Count)
system.membus.snoopFanout::stdev             0.001948                       # Request fanout histogram (Count)
system.membus.snoopFanout::underflows               0      0.00%      0.00% # Request fanout histogram (Count)
system.membus.snoopFanout::0                   527144    100.00%    100.00% # Request fanout histogram (Count)
system.membus.snoopFanout::1                        2      0.00%    100.00% # Request fanout histogram (Count)
system.membus.snoopFanout::2                        0      0.00%    100.00% # Request fanout histogram (Count)
system.membus.snoopFanout::overflows                0      0.00%    100.00% # Request fanout histogram (Count)
system.membus.snoopFanout::min_value                0                       # Request fanout histogram (Count)
system.membus.snoopFanout::max_value                1                       # Request fanout histogram (Count)
system.membus.snoopFanout::total               527146                       # Request fanout histogram (Count)
system.membus.power_state.pwrStateResidencyTicks::UNDEFINED  20541328500                       # Cumulative time (in ticks) in various power states (Tick)
system.membus.reqLayer0.occupancy          1764712000                       # Layer occupancy (ticks) (Tick)
system.membus.reqLayer0.utilization               0.1                       # Layer utilization (Ratio)
system.membus.respLayer1.occupancy          187935490                       # Layer occupancy (ticks) (Tick)
system.membus.respLayer1.utilization              0.0                       # Layer utilization (Ratio)
system.membus.respLayer2.occupancy         2520595000                       # Layer occupancy (ticks) (Tick)
system.membus.respLayer2.utilization              0.1                       # Layer utilization (Ratio)
system.membus.snoop_filter.totRequests        1053749                       # Total number of requests made to the snoop filter. (Count)
system.membus.snoop_filter.hitSingleRequests       526604                       # Number of requests hitting in the snoop filter with a single holder of the requested data. (Count)
system.membus.snoop_filter.hitMultiRequests            1                       # Number of requests hitting in the snoop filter with multiple (>1) holders of the requested data. (Count)
system.membus.snoop_filter.totSnoops                0                       # Total number of snoops made to the snoop filter. (Count)
system.membus.snoop_filter.hitSingleSnoops            0                       # Number of snoops hitting in the snoop filter with a single holder of the requested data. (Count)
system.membus.snoop_filter.hitMultiSnoops            0                       # Number of snoops hitting in the snoop filter with multiple (>1) holders of the requested data. (Count)
system.voltage_domain.voltage                       1                       # Voltage in Volts (Volt)
system.workload.inst.arm                            0                       # number of arm instructions executed (Count)
system.workload.inst.quiesce                        0                       # number of quiesce instructions executed (Count)

---------- End Simulation Statistics   ----------
