
---------- Begin Simulation Statistics ----------
simSeconds                                   0.029684                       # Number of seconds simulated (Second)
simTicks                                  29683709000                       # Number of ticks simulated (Tick)
finalTick                                 29683709000                       # Number of ticks from beginning of simulation (restored from checkpoints and never reset) (Tick)
simFreq                                  1000000000000                       # The number of ticks per simulated second ((Tick/Second))
hostSeconds                                     58.74                       # Real time elapsed on the host (Second)
hostTickRate                                505370088                       # The number of ticks simulated per host second (ticks/s) ((Tick/Second))
hostMemory                                     671436                       # Number of bytes of host memory used (Byte)
simInsts                                     42834982                       # Number of instructions simulated (Count)
simOps                                       47175355                       # Number of ops (including micro ops) simulated (Count)
hostInstRate                                   729272                       # Simulator instruction rate (inst/s) ((Count/Second))
hostOpRate                                     803168                       # Simulator op (including micro ops) rate (op/s) ((Count/Second))
system.clk_domain.clock                          1000                       # Clock period in ticks (Tick)
system.cpu.numCycles                         59367418                       # Number of cpu cycles simulated (Cycle)
system.cpu.numWorkItemsStarted                      0                       # Number of work items this cpu started (Count)
system.cpu.numWorkItemsCompleted                    0                       # Number of work items this cpu completed (Count)
system.cpu.numInsts                          42834982                       # Number of instructions committed (Count)
system.cpu.numOps                            47175355                       # Number of ops (including micro ops) committed (Count)
system.cpu.numDiscardedOps                     333923                       # Number of ops (including micro ops) which were discarded before commit (Count)
system.cpu.numFetchSuspends                         0                       # Number of times Execute suspended instruction fetching (Count)
system.cpu.cpi                               1.385956                       # CPI: cycles per instruction ((Cycle/Count))
system.cpu.ipc                               0.721523                       # IPC: instructions per cycle ((Count/Cycle))
system.cpu.committedInstType_0::No_OpClass        27678      0.06%      0.06% # Class of committed instruction (Count)
system.cpu.committedInstType_0::IntAlu       30616782     64.90%     64.96% # Class of committed instruction (Count)
system.cpu.committedInstType_0::IntMult        641224      1.36%     66.32% # Class of committed instruction (Count)
system.cpu.committedInstType_0::IntDiv         153813      0.33%     66.64% # Class of committed instruction (Count)
system.cpu.committedInstType_0::FloatAdd       278528      0.59%     67.23% # Class of committed instruction (Count)
system.cpu.committedInstType_0::FloatCmp        16384      0.03%     67.27% # Class of committed instruction (Count)
system.cpu.committedInstType_0::FloatCvt            0      0.00%     67.27% # Class of committed instruction (Count)
system.cpu.committedInstType_0::FloatMult       262144      0.56%     67.82% # Class of committed instruction (Count)
system.cpu.committedInstType_0::FloatMultAcc            0      0.00%     67.82% # Class of committed instruction (Count)
system.cpu.committedInstType_0::FloatDiv            0      0.00%     67.82% # Class of committed instruction (Count)
system.cpu.committedInstType_0::FloatMisc        49152      0.10%     67.93% # Class of committed instruction (Count)
system.cpu.committedInstType_0::FloatSqrt            0      0.00%     67.93% # Class of committed instruction (Count)
system.cpu.committedInstType_0::SimdAdd         62740      0.13%     68.06% # Class of committed instruction (Count)
system.cpu.committedInstType_0::SimdAddAcc            0      0.00%     68.06% # Class of committed instruction (Count)
system.cpu.committedInstType_0::SimdAlu        118041      0.25%     68.31% # Class of committed instruction (Count)
system.cpu.committedInstType_0::SimdCmp        110616      0.23%     68.55% # Class of committed instruction (Count)
system.cpu.committedInstType_0::SimdCvt             0      0.00%     68.55% # Class of committed instruction (Count)
system.cpu.committedInstType_0::SimdMisc        76054      0.16%     68.71% # Class of committed instruction (Count)
system.cpu.committedInstType_0::SimdMult            0      0.00%     68.71% # Class of committed instruction (Count)
system.cpu.committedInstType_0::SimdMultAcc            0      0.00%     68.71% # Class of committed instruction (Count)
system.cpu.committedInstType_0::SimdShift            0      0.00%     68.71% # Class of committed instruction (Count)
system.cpu.committedInstType_0::SimdShiftAcc            0      0.00%     68.71% # Class of committed instruction (Count)
system.cpu.committedInstType_0::SimdDiv             0      0.00%     68.71% # Class of committed instruction (Count)
system.cpu.committedInstType_0::SimdSqrt            0      0.00%     68.71% # Class of committed instruction (Count)
system.cpu.committedInstType_0::SimdFloatAdd            0      0.00%     68.71% # Class of committed instruction (Count)
system.cpu.committedInstType_0::SimdFloatAlu            0      0.00%     68.71% # Class of committed instruction (Count)
system.cpu.committedInstType_0::SimdFloatCmp            0      0.00%     68.71% # Class of committed instruction (Count)
system.cpu.committedInstType_0::SimdFloatCvt            0      0.00%     68.71% # Class of committed instruction (Count)
system.cpu.committedInstType_0::SimdFloatDiv            0      0.00%     68.71% # Class of committed instruction (Count)
system.cpu.committedInstType_0::SimdFloatMisc            0      0.00%     68.71% # Class of committed instruction (Count)
system.cpu.committedInstType_0::SimdFloatMult            0      0.00%     68.71% # Class of committed instruction (Count)
system.cpu.committedInstType_0::SimdFloatMultAcc            0      0.00%     68.71% # Class of committed instruction (Count)
system.cpu.committedInstType_0::SimdFloatSqrt            0      0.00%     68.71% # Class of committed instruction (Count)
system.cpu.committedInstType_0::SimdReduceAdd            0      0.00%     68.71% # Class of committed instruction (Count)
system.cpu.committedInstType_0::SimdReduceAlu            0      0.00%     68.71% # Class of committed instruction (Count)
system.cpu.committedInstType_0::SimdReduceCmp            0      0.00%     68.71% # Class of committed instruction (Count)
system.cpu.committedInstType_0::SimdFloatReduceAdd            0      0.00%     68.71% # Class of committed instruction (Count)
system.cpu.committedInstType_0::SimdFloatReduceCmp            0      0.00%     68.71% # Class of committed instruction (Count)
system.cpu.committedInstType_0::SimdAes             0      0.00%     68.71% # Class of committed instruction (Count)
system.cpu.committedInstType_0::SimdAesMix            0      0.00%     68.71% # Class of committed instruction (Count)
system.cpu.committedInstType_0::SimdSha1Hash            0      0.00%     68.71% # Class of committed instruction (Count)
system.cpu.committedInstType_0::SimdSha1Hash2            0      0.00%     68.71% # Class of committed instruction (Count)
system.cpu.committedInstType_0::SimdSha256Hash            0      0.00%     68.71% # Class of committed instruction (Count)
system.cpu.committedInstType_0::SimdSha256Hash2            0      0.00%     68.71% # Class of committed instruction (Count)
system.cpu.committedInstType_0::SimdShaSigma2            0      0.00%     68.71% # Class of committed instruction (Count)
system.cpu.committedInstType_0::SimdShaSigma3            0      0.00%     68.71% # Class of committed instruction (Count)
system.cpu.committedInstType_0::SimdPredAlu            0      0.00%     68.71% # Class of committed instruction (Count)
system.cpu.committedInstType_0::MemRead       9356228     19.83%     88.54% # Class of committed instruction (Count)
system.cpu.committedInstType_0::MemWrite      5405971     11.46%    100.00% # Class of committed instruction (Count)
system.cpu.committedInstType_0::FloatMemRead            0      0.00%    100.00% # Class of committed instruction (Count)
system.cpu.committedInstType_0::FloatMemWrite            0      0.00%    100.00% # Class of committed instruction (Count)
system.cpu.committedInstType_0::IprAccess            0      0.00%    100.00% # Class of committed instruction (Count)
system.cpu.committedInstType_0::InstPrefetch            0      0.00%    100.00% # Class of committed instruction (Count)
system.cpu.committedInstType_0::total        47175355                       # Class of committed instruction (Count)
system.cpu.branchPred.lookups                 6905010                       # Number of BP lookups (Count)
system.cpu.branchPred.condPredicted           5238698                       # Number of conditional branches predicted (Count)
system.cpu.branchPred.condIncorrect            132719                       # Number of conditional branches incorrect (Count)
system.cpu.branchPred.BTBLookups              3824620                       # Number of BTB lookups (Count)
system.cpu.branchPred.BTBHits                 3750385                       # Number of BTB hits (Count)
system.cpu.branchPred.BTBHitRatio            0.980590                       # BTB Hit Ratio (Ratio)
system.cpu.branchPred.RASUsed                  545393                       # Number of times the RAS was used to get a target. (Count)
system.cpu.branchPred.RASIncorrect                 16                       # Number of incorrect RAS predictions. (Count)
system.cpu.branchPred.indirectLookups           79354                       # Number of indirect predictor lookups. (Count)
system.cpu.branchPred.indirectHits              79062                       # Number of indirect target hits. (Count)
system.cpu.branchPred.indirectMisses              292                       # Number of indirect misses. (Count)
system.cpu.branchPred.indirectMispredicted         4208                       # Number of mispredicted indirect branches. (Count)
system.cpu.dcache.demandHits::cpu.data       14425811                       # number of demand (read+write) hits (Count)
system.cpu.dcache.demandHits::total          14425811                       # number of demand (read+write) hits (Count)
system.cpu.dcache.overallHits::cpu.data      14455539                       # number of overall hits (Count)
system.cpu.dcache.overallHits::total         14455539                       # number of overall hits (Count)
system.cpu.dcache.demandMisses::cpu.data        36921                       # number of demand (read+write) misses (Count)
system.cpu.dcache.demandMisses::total           36921                       # number of demand (read+write) misses (Count)
system.cpu.dcache.overallMisses::cpu.data        36977                       # number of overall misses (Count)
system.cpu.dcache.overallMisses::total          36977                       # number of overall misses (Count)
system.cpu.dcache.demandMissLatency::cpu.data   1991113000                       # number of demand (read+write) miss ticks (Tick)
system.cpu.dcache.demandMissLatency::total   1991113000                       # number of demand (read+write) miss ticks (Tick)
system.cpu.dcache.overallMissLatency::cpu.data   1991113000                       # number of overall miss ticks (Tick)
system.cpu.dcache.overallMissLatency::total   1991113000                       # number of overall miss ticks (Tick)
system.cpu.dcache.demandAccesses::cpu.data     14462732                       # number of demand (read+write) accesses (Count)
system.cpu.dcache.demandAccesses::total      14462732                       # number of demand (read+write) accesses (Count)
system.cpu.dcache.overallAccesses::cpu.data     14492516                       # number of overall (read+write) accesses (Count)
system.cpu.dcache.overallAccesses::total     14492516                       # number of overall (read+write) accesses (Count)
system.cpu.dcache.demandMissRate::cpu.data     0.002553                       # miss rate for demand accesses (Ratio)
system.cpu.dcache.demandMissRate::total      0.002553                       # miss rate for demand accesses (Ratio)
system.cpu.dcache.overallMissRate::cpu.data     0.002551                       # miss rate for overall accesses (Ratio)
system.cpu.dcache.overallMissRate::total     0.002551                       # miss rate for overall accesses (Ratio)
system.cpu.dcache.demandAvgMissLatency::cpu.data 53929.010590                       # average overall miss latency ((Cycle/Count))
system.cpu.dcache.demandAvgMissLatency::total 53929.010590                       # average overall miss latency ((Cycle/Count))
system.cpu.dcache.overallAvgMissLatency::cpu.data 53847.337534                       # average overall miss latency ((Cycle/Count))
system.cpu.dcache.overallAvgMissLatency::total 53847.337534                       # average overall miss latency ((Cycle/Count))
system.cpu.dcache.blockedCycles::no_mshrs            0                       # number of cycles access was blocked (Cycle)
system.cpu.dcache.blockedCycles::no_targets            0                       # number of cycles access was blocked (Cycle)
system.cpu.dcache.blockedCauses::no_mshrs            0                       # number of times access was blocked (Count)
system.cpu.dcache.blockedCauses::no_targets            0                       # number of times access was blocked (Count)
system.cpu.dcache.avgBlocked::no_mshrs            nan                       # average number of cycles each access was blocked ((Cycle/Count))
system.cpu.dcache.avgBlocked::no_targets          nan                       # average number of cycles each access was blocked ((Cycle/Count))
system.cpu.dcache.writebacks::writebacks        11089                       # number of writebacks (Count)
system.cpu.dcache.writebacks::total             11089                       # number of writebacks (Count)
system.cpu.dcache.demandMshrHits::cpu.data         3815                       # number of demand (read+write) MSHR hits (Count)
system.cpu.dcache.demandMshrHits::total          3815                       # number of demand (read+write) MSHR hits (Count)
system.cpu.dcache.overallMshrHits::cpu.data         3815                       # number of overall MSHR hits (Count)
system.cpu.dcache.overallMshrHits::total         3815                       # number of overall MSHR hits (Count)
system.cpu.dcache.demandMshrMisses::cpu.data        33106                       # number of demand (read+write) MSHR misses (Count)
system.cpu.dcache.demandMshrMisses::total        33106                       # number of demand (read+write) MSHR misses (Count)
system.cpu.dcache.overallMshrMisses::cpu.data        33162                       # number of overall MSHR misses (Count)
system.cpu.dcache.overallMshrMisses::total        33162                       # number of overall MSHR misses (Count)
system.cpu.dcache.demandMshrMissLatency::cpu.data   1710812750                       # number of demand (read+write) MSHR miss ticks (Tick)
system.cpu.dcache.demandMshrMissLatency::total   1710812750                       # number of demand (read+write) MSHR miss ticks (Tick)
system.cpu.dcache.overallMshrMissLatency::cpu.data   1714555750                       # number of overall MSHR miss ticks (Tick)
system.cpu.dcache.overallMshrMissLatency::total   1714555750                       # number of overall MSHR miss ticks (Tick)
system.cpu.dcache.demandMshrMissRate::cpu.data     0.002289                       # mshr miss ratio for demand accesses (Ratio)
system.cpu.dcache.demandMshrMissRate::total     0.002289                       # mshr miss ratio for demand accesses (Ratio)
system.cpu.dcache.overallMshrMissRate::cpu.data     0.002288                       # mshr miss ratio for overall accesses (Ratio)
system.cpu.dcache.overallMshrMissRate::total     0.002288                       # mshr miss ratio for overall accesses (Ratio)
system.cpu.dcache.demandAvgMshrMissLatency::cpu.data 51676.818401                       # average overall mshr miss latency ((Cycle/Count))
system.cpu.dcache.demandAvgMshrMissLatency::total 51676.818401                       # average overall mshr miss latency ((Cycle/Count))
system.cpu.dcache.overallAvgMshrMissLatency::cpu.data 51702.422954                       # average overall mshr miss latency ((Cycle/Count))
system.cpu.dcache.overallAvgMshrMissLatency::total 51702.422954                       # average overall mshr miss latency ((Cycle/Count))
system.cpu.dcache.replacements                  32651                       # number of replacements (Count)
system.cpu.dcache.LoadLockedReq.hits::cpu.data            4                       # number of LoadLockedReq hits (Count)
system.cpu.dcache.LoadLockedReq.hits::total            4                       # number of LoadLockedReq hits (Count)
system.cpu.dcache.LoadLockedReq.accesses::cpu.data            4                       # number of LoadLockedReq accesses(hits+misses) (Count)
system.cpu.dcache.LoadLockedReq.accesses::total            4                       # number of LoadLockedReq accesses(hits+misses) (Count)
system.cpu.dcache.ReadReq.hits::cpu.data      9027397                       # number of ReadReq hits (Count)
system.cpu.dcache.ReadReq.hits::total         9027397                       # number of ReadReq hits (Count)
system.cpu.dcache.ReadReq.misses::cpu.data        29426                       # number of ReadReq misses (Count)
system.cpu.dcache.ReadReq.misses::total         29426                       # number of ReadReq misses (Count)
system.cpu.dcache.ReadReq.missLatency::cpu.data   1735563500                       # number of ReadReq miss ticks (Tick)
system.cpu.dcache.ReadReq.missLatency::total   1735563500                       # number of ReadReq miss ticks (Tick)
system.cpu.dcache.ReadReq.accesses::cpu.data      9056823                       # number of ReadReq accesses(hits+misses) (Count)
system.cpu.dcache.ReadReq.accesses::total      9056823                       # number of ReadReq accesses(hits+misses) (Count)
system.cpu.dcache.ReadReq.missRate::cpu.data     0.003249                       # miss rate for ReadReq accesses (Ratio)
system.cpu.dcache.ReadReq.missRate::total     0.003249                       # miss rate for ReadReq accesses (Ratio)
system.cpu.dcache.ReadReq.avgMissLatency::cpu.data 58980.612384                       # average ReadReq miss latency ((Tick/Count))
system.cpu.dcache.ReadReq.avgMissLatency::total 58980.612384                       # average ReadReq miss latency ((Tick/Count))
system.cpu.dcache.ReadReq.mshrHits::cpu.data         3672                       # number of ReadReq MSHR hits (Count)
system.cpu.dcache.ReadReq.mshrHits::total         3672                       # number of ReadReq MSHR hits (Count)
system.cpu.dcache.ReadReq.mshrMisses::cpu.data        25754                       # number of ReadReq MSHR misses (Count)
system.cpu.dcache.ReadReq.mshrMisses::total        25754                       # number of ReadReq MSHR misses (Count)
system.cpu.dcache.ReadReq.mshrMissLatency::cpu.data   1470502500                       # number of ReadReq MSHR miss ticks (Tick)
system.cpu.dcache.ReadReq.mshrMissLatency::total   1470502500                       # number of ReadReq MSHR miss ticks (Tick)
system.cpu.dcache.ReadReq.mshrMissRate::cpu.data     0.002844                       # mshr miss rate for ReadReq accesses (Ratio)
system.cpu.dcache.ReadReq.mshrMissRate::total     0.002844                       # mshr miss rate for ReadReq accesses (Ratio)
system.cpu.dcache.ReadReq.avgMshrMissLatency::cpu.data 57098.023608                       # average ReadReq mshr miss latency ((Tick/Count))
system.cpu.dcache.ReadReq.avgMshrMissLatency::total 57098.023608                       # average ReadReq mshr miss latency ((Tick/Count))
system.cpu.dcache.SoftPFReq.hits::cpu.data        29728                       # number of SoftPFReq hits (Count)
system.cpu.dcache.SoftPFReq.hits::total         29728                       # number of SoftPFReq hits (Count)
system.cpu.dcache.SoftPFReq.misses::cpu.data           56                       # number of SoftPFReq misses (Count)
system.cpu.dcache.SoftPFReq.misses::total           56                       # number of SoftPFReq misses (Count)
system.cpu.dcache.SoftPFReq.accesses::cpu.data        29784                       # number of SoftPFReq accesses(hits+misses) (Count)
system.cpu.dcache.SoftPFReq.accesses::total        29784                       # number of SoftPFReq accesses(hits+misses) (Count)
system.cpu.dcache.SoftPFReq.missRate::cpu.data     0.001880                       # miss rate for SoftPFReq accesses (Ratio)
system.cpu.dcache.SoftPFReq.missRate::total     0.001880                       # miss rate for SoftPFReq accesses (Ratio)
system.cpu.dcache.SoftPFReq.mshrMisses::cpu.data           56                       # number of SoftPFReq MSHR misses (Count)
system.cpu.dcache.SoftPFReq.mshrMisses::total           56                       # number of SoftPFReq MSHR misses (Count)
system.cpu.dcache.SoftPFReq.mshrMissLatency::cpu.data      3743000                       # number of SoftPFReq MSHR miss ticks (Tick)
system.cpu.dcache.SoftPFReq.mshrMissLatency::total      3743000                       # number of SoftPFReq MSHR miss ticks (Tick)
system.cpu.dcache.SoftPFReq.mshrMissRate::cpu.data     0.001880                       # mshr miss rate for SoftPFReq accesses (Ratio)
system.cpu.dcache.SoftPFReq.mshrMissRate::total     0.001880                       # mshr miss rate for SoftPFReq accesses (Ratio)
system.cpu.dcache.SoftPFReq.avgMshrMissLatency::cpu.data 66839.285714                       # average SoftPFReq mshr miss latency ((Tick/Count))
system.cpu.dcache.SoftPFReq.avgMshrMissLatency::total 66839.285714                       # average SoftPFReq mshr miss latency ((Tick/Count))
system.cpu.dcache.StoreCondReq.hits::cpu.data            4                       # number of StoreCondReq hits (Count)
system.cpu.dcache.StoreCondReq.hits::total            4                       # number of StoreCondReq hits (Count)
system.cpu.dcache.StoreCondReq.accesses::cpu.data            4                       # number of StoreCondReq accesses(hits+misses) (Count)
system.cpu.dcache.StoreCondReq.accesses::total            4                       # number of StoreCondReq accesses(hits+misses) (Count)
system.cpu.dcache.SwapReq.hits::cpu.data           19                       # number of SwapReq hits (Count)
system.cpu.dcache.SwapReq.hits::total              19                       # number of SwapReq hits (Count)
system.cpu.dcache.SwapReq.misses::cpu.data            1                       # number of SwapReq misses (Count)
system.cpu.dcache.SwapReq.misses::total             1                       # number of SwapReq misses (Count)
system.cpu.dcache.SwapReq.missLatency::cpu.data       140000                       # number of SwapReq miss ticks (Tick)
system.cpu.dcache.SwapReq.missLatency::total       140000                       # number of SwapReq miss ticks (Tick)
system.cpu.dcache.SwapReq.accesses::cpu.data           20                       # number of SwapReq accesses(hits+misses) (Count)
system.cpu.dcache.SwapReq.accesses::total           20                       # number of SwapReq accesses(hits+misses) (Count)
system.cpu.dcache.SwapReq.missRate::cpu.data     0.050000                       # miss rate for SwapReq accesses (Ratio)
system.cpu.dcache.SwapReq.missRate::total     0.050000                       # miss rate for SwapReq accesses (Ratio)
system.cpu.dcache.SwapReq.avgMissLatency::cpu.data       140000                       # average SwapReq miss latency ((Tick/Count))
system.cpu.dcache.SwapReq.avgMissLatency::total       140000                       # average SwapReq miss latency ((Tick/Count))
system.cpu.dcache.SwapReq.mshrMisses::cpu.data            1                       # number of SwapReq MSHR misses (Count)
system.cpu.dcache.SwapReq.mshrMisses::total            1                       # number of SwapReq MSHR misses (Count)
system.cpu.dcache.SwapReq.mshrMissLatency::cpu.data       139000                       # number of SwapReq MSHR miss ticks (Tick)
system.cpu.dcache.SwapReq.mshrMissLatency::total       139000                       # number of SwapReq MSHR miss ticks (Tick)
system.cpu.dcache.SwapReq.mshrMissRate::cpu.data     0.050000                       # mshr miss rate for SwapReq accesses (Ratio)
system.cpu.dcache.SwapReq.mshrMissRate::total     0.050000                       # mshr miss rate for SwapReq accesses (Ratio)
system.cpu.dcache.SwapReq.avgMshrMissLatency::cpu.data       139000                       # average SwapReq mshr miss latency ((Tick/Count))
system.cpu.dcache.SwapReq.avgMshrMissLatency::total       139000                       # average SwapReq mshr miss latency ((Tick/Count))
system.cpu.dcache.WriteLineReq.misses::cpu.data         1540                       # number of WriteLineReq misses (Count)
system.cpu.dcache.WriteLineReq.misses::total         1540                       # number of WriteLineReq misses (Count)
system.cpu.dcache.WriteLineReq.missLatency::cpu.data     20024000                       # number of WriteLineReq miss ticks (Tick)
system.cpu.dcache.WriteLineReq.missLatency::total     20024000                       # number of WriteLineReq miss ticks (Tick)
system.cpu.dcache.WriteLineReq.accesses::cpu.data         1540                       # number of WriteLineReq accesses(hits+misses) (Count)
system.cpu.dcache.WriteLineReq.accesses::total         1540                       # number of WriteLineReq accesses(hits+misses) (Count)
system.cpu.dcache.WriteLineReq.missRate::cpu.data            1                       # miss rate for WriteLineReq accesses (Ratio)
system.cpu.dcache.WriteLineReq.missRate::total            1                       # miss rate for WriteLineReq accesses (Ratio)
system.cpu.dcache.WriteLineReq.avgMissLatency::cpu.data 13002.597403                       # average WriteLineReq miss latency ((Tick/Count))
system.cpu.dcache.WriteLineReq.avgMissLatency::total 13002.597403                       # average WriteLineReq miss latency ((Tick/Count))
system.cpu.dcache.WriteLineReq.mshrMisses::cpu.data         1540                       # number of WriteLineReq MSHR misses (Count)
system.cpu.dcache.WriteLineReq.mshrMisses::total         1540                       # number of WriteLineReq MSHR misses (Count)
system.cpu.dcache.WriteLineReq.mshrMissLatency::cpu.data     18483750                       # number of WriteLineReq MSHR miss ticks (Tick)
system.cpu.dcache.WriteLineReq.mshrMissLatency::total     18483750                       # number of WriteLineReq MSHR miss ticks (Tick)
system.cpu.dcache.WriteLineReq.mshrMissRate::cpu.data            1                       # mshr miss rate for WriteLineReq accesses (Ratio)
system.cpu.dcache.WriteLineReq.mshrMissRate::total            1                       # mshr miss rate for WriteLineReq accesses (Ratio)
system.cpu.dcache.WriteLineReq.avgMshrMissLatency::cpu.data 12002.435065                       # average WriteLineReq mshr miss latency ((Tick/Count))
system.cpu.dcache.WriteLineReq.avgMshrMissLatency::total 12002.435065                       # average WriteLineReq mshr miss latency ((Tick/Count))
system.cpu.dcache.WriteReq.hits::cpu.data      5398414                       # number of WriteReq hits (Count)
system.cpu.dcache.WriteReq.hits::total        5398414                       # number of WriteReq hits (Count)
system.cpu.dcache.WriteReq.misses::cpu.data         5955                       # number of WriteReq misses (Count)
system.cpu.dcache.WriteReq.misses::total         5955                       # number of WriteReq misses (Count)
system.cpu.dcache.WriteReq.missLatency::cpu.data    235525500                       # number of WriteReq miss ticks (Tick)
system.cpu.dcache.WriteReq.missLatency::total    235525500                       # number of WriteReq miss ticks (Tick)
system.cpu.dcache.WriteReq.accesses::cpu.data      5404369                       # number of WriteReq accesses(hits+misses) (Count)
system.cpu.dcache.WriteReq.accesses::total      5404369                       # number of WriteReq accesses(hits+misses) (Count)
system.cpu.dcache.WriteReq.missRate::cpu.data     0.001102                       # miss rate for WriteReq accesses (Ratio)
system.cpu.dcache.WriteReq.missRate::total     0.001102                       # miss rate for WriteReq accesses (Ratio)
system.cpu.dcache.WriteReq.avgMissLatency::cpu.data 39550.881612                       # average WriteReq miss latency ((Tick/Count))
system.cpu.dcache.WriteReq.avgMissLatency::total 39550.881612                       # average WriteReq miss latency ((Tick/Count))
system.cpu.dcache.WriteReq.mshrHits::cpu.data          143                       # number of WriteReq MSHR hits (Count)
system.cpu.dcache.WriteReq.mshrHits::total          143                       # number of WriteReq MSHR hits (Count)
system.cpu.dcache.WriteReq.mshrMisses::cpu.data         5812                       # number of WriteReq MSHR misses (Count)
system.cpu.dcache.WriteReq.mshrMisses::total         5812                       # number of WriteReq MSHR misses (Count)
system.cpu.dcache.WriteReq.mshrMissLatency::cpu.data    221826500                       # number of WriteReq MSHR miss ticks (Tick)
system.cpu.dcache.WriteReq.mshrMissLatency::total    221826500                       # number of WriteReq MSHR miss ticks (Tick)
system.cpu.dcache.WriteReq.mshrMissRate::cpu.data     0.001075                       # mshr miss rate for WriteReq accesses (Ratio)
system.cpu.dcache.WriteReq.mshrMissRate::total     0.001075                       # mshr miss rate for WriteReq accesses (Ratio)
system.cpu.dcache.WriteReq.avgMshrMissLatency::cpu.data 38166.982106                       # average WriteReq mshr miss latency ((Tick/Count))
system.cpu.dcache.WriteReq.avgMshrMissLatency::total 38166.982106                       # average WriteReq mshr miss latency ((Tick/Count))
system.cpu.dcache.power_state.pwrStateResidencyTicks::UNDEFINED  29683709000                       # Cumulative time (in ticks) in various power states (Tick)
system.cpu.dcache.tags.tagsInUse           511.572022                       # Average ticks per tags in use ((Tick/Count))
system.cpu.dcache.tags.totalRefs             14488729                       # Total number of references to valid blocks. (Count)
system.cpu.dcache.tags.sampledRefs              33163                       # Sample count of references to valid blocks. (Count)
system.cpu.dcache.tags.avgRefs             436.894400                       # Average number of references to valid blocks. ((Count/Count))
system.cpu.dcache.tags.warmupTick              145000                       # The tick when the warmup percentage was hit. (Tick)
system.cpu.dcache.tags.occupancies::cpu.data   511.572022                       # Average occupied blocks per tick, per requestor ((Count/Tick))
system.cpu.dcache.tags.avgOccs::cpu.data     0.999164                       # Average percentage of cache occupancy ((Ratio/Tick))
system.cpu.dcache.tags.avgOccs::total        0.999164                       # Average percentage of cache occupancy ((Ratio/Tick))
system.cpu.dcache.tags.occupanciesTaskId::1024          512                       # Occupied blocks per task id (Count)
system.cpu.dcache.tags.ageTaskId_1024::0           34                       # Occupied blocks per task id, per block age (Count)
system.cpu.dcache.tags.ageTaskId_1024::1          472                       # Occupied blocks per task id, per block age (Count)
system.cpu.dcache.tags.ageTaskId_1024::2            6                       # Occupied blocks per task id, per block age (Count)
system.cpu.dcache.tags.ratioOccsTaskId::1024            1                       # Ratio of occupied blocks and all blocks, per task id (Ratio)
system.cpu.dcache.tags.tagAccesses           29018251                       # Number of tag accesses (Count)
system.cpu.dcache.tags.dataAccesses          29018251                       # Number of data accesses (Count)
system.cpu.dcache.tags.power_state.pwrStateResidencyTicks::UNDEFINED  29683709000                       # Cumulative time (in ticks) in various power states (Tick)
system.cpu.fetch2.intInstructions            24627739                       # Number of integer instructions successfully decoded (Count)
system.cpu.fetch2.fpInstructions                    0                       # Number of floating point instructions successfully decoded (Count)
system.cpu.fetch2.vecInstructions              999743                       # Number of SIMD instructions successfully decoded (Count)
system.cpu.fetch2.loadInstructions            7848223                       # Number of memory load instructions successfully decoded (Count)
system.cpu.fetch2.storeInstructions           3178726                       # Number of memory store instructions successfully decoded (Count)
system.cpu.fetch2.amoInstructions                  23                       # Number of memory atomic instructions successfully decoded (Count)
system.cpu.icache.demandHits::cpu.inst       13073972                       # number of demand (read+write) hits (Count)
system.cpu.icache.demandHits::total          13073972                       # number of demand (read+write) hits (Count)
system.cpu.icache.overallHits::cpu.inst      13073972                       # number of overall hits (Count)
system.cpu.icache.overallHits::total         13073972                       # number of overall hits (Count)
system.cpu.icache.demandMisses::cpu.inst        66729                       # number of demand (read+write) misses (Count)
system.cpu.icache.demandMisses::total           66729                       # number of demand (read+write) misses (Count)
system.cpu.icache.overallMisses::cpu.inst        66729                       # number of overall misses (Count)
system.cpu.icache.overallMisses::total          66729                       # number of overall misses (Count)
system.cpu.icache.demandMissLatency::cpu.inst   1572871000                       # number of demand (read+write) miss ticks (Tick)
system.cpu.icache.demandMissLatency::total   1572871000                       # number of demand (read+write) miss ticks (Tick)
system.cpu.icache.overallMissLatency::cpu.inst   1572871000                       # number of overall miss ticks (Tick)
system.cpu.icache.overallMissLatency::total   1572871000                       # number of overall miss ticks (Tick)
system.cpu.icache.demandAccesses::cpu.inst     13140701                       # number of demand (read+write) accesses (Count)
system.cpu.icache.demandAccesses::total      13140701                       # number of demand (read+write) accesses (Count)
system.cpu.icache.overallAccesses::cpu.inst     13140701                       # number of overall (read+write) accesses (Count)
system.cpu.icache.overallAccesses::total     13140701                       # number of overall (read+write) accesses (Count)
system.cpu.icache.demandMissRate::cpu.inst     0.005078                       # miss rate for demand accesses (Ratio)
system.cpu.icache.demandMissRate::total      0.005078                       # miss rate for demand accesses (Ratio)
system.cpu.icache.overallMissRate::cpu.inst     0.005078                       # miss rate for overall accesses (Ratio)
system.cpu.icache.overallMissRate::total     0.005078                       # miss rate for overall accesses (Ratio)
system.cpu.icache.demandAvgMissLatency::cpu.inst 23571.026091                       # average overall miss latency ((Cycle/Count))
system.cpu.icache.demandAvgMissLatency::total 23571.026091                       # average overall miss latency ((Cycle/Count))
system.cpu.icache.overallAvgMissLatency::cpu.inst 23571.026091                       # average overall miss latency ((Cycle/Count))
system.cpu.icache.overallAvgMissLatency::total 23571.026091                       # average overall miss latency ((Cycle/Count))
system.cpu.icache.blockedCycles::no_mshrs            0                       # number of cycles access was blocked (Cycle)
system.cpu.icache.blockedCycles::no_targets            0                       # number of cycles access was blocked (Cycle)
system.cpu.icache.blockedCauses::no_mshrs            0                       # number of times access was blocked (Count)
system.cpu.icache.blockedCauses::no_targets            0                       # number of times access was blocked (Count)
system.cpu.icache.avgBlocked::no_mshrs            nan                       # average number of cycles each access was blocked ((Cycle/Count))
system.cpu.icache.avgBlocked::no_targets          nan                       # average number of cycles each access was blocked ((Cycle/Count))
system.cpu.icache.writebacks::writebacks        66240                       # number of writebacks (Count)
system.cpu.icache.writebacks::total             66240                       # number of writebacks (Count)
system.cpu.icache.demandMshrMisses::cpu.inst        66729                       # number of demand (read+write) MSHR misses (Count)
system.cpu.icache.demandMshrMisses::total        66729                       # number of demand (read+write) MSHR misses (Count)
system.cpu.icache.overallMshrMisses::cpu.inst        66729                       # number of overall MSHR misses (Count)
system.cpu.icache.overallMshrMisses::total        66729                       # number of overall MSHR misses (Count)
system.cpu.icache.demandMshrMissLatency::cpu.inst   1506143000                       # number of demand (read+write) MSHR miss ticks (Tick)
system.cpu.icache.demandMshrMissLatency::total   1506143000                       # number of demand (read+write) MSHR miss ticks (Tick)
system.cpu.icache.overallMshrMissLatency::cpu.inst   1506143000                       # number of overall MSHR miss ticks (Tick)
system.cpu.icache.overallMshrMissLatency::total   1506143000                       # number of overall MSHR miss ticks (Tick)
system.cpu.icache.demandMshrMissRate::cpu.inst     0.005078                       # mshr miss ratio for demand accesses (Ratio)
system.cpu.icache.demandMshrMissRate::total     0.005078                       # mshr miss ratio for demand accesses (Ratio)
system.cpu.icache.overallMshrMissRate::cpu.inst     0.005078                       # mshr miss ratio for overall accesses (Ratio)
system.cpu.icache.overallMshrMissRate::total     0.005078                       # mshr miss ratio for overall accesses (Ratio)
system.cpu.icache.demandAvgMshrMissLatency::cpu.inst 22571.041077                       # average overall mshr miss latency ((Cycle/Count))
system.cpu.icache.demandAvgMshrMissLatency::total 22571.041077                       # average overall mshr miss latency ((Cycle/Count))
system.cpu.icache.overallAvgMshrMissLatency::cpu.inst 22571.041077                       # average overall mshr miss latency ((Cycle/Count))
system.cpu.icache.overallAvgMshrMissLatency::total 22571.041077                       # average overall mshr miss latency ((Cycle/Count))
system.cpu.icache.replacements                  66240                       # number of replacements (Count)
system.cpu.icache.ReadReq.hits::cpu.inst     13073972                       # number of ReadReq hits (Count)
system.cpu.icache.ReadReq.hits::total        13073972                       # number of ReadReq hits (Count)
system.cpu.icache.ReadReq.misses::cpu.inst        66729                       # number of ReadReq misses (Count)
system.cpu.icache.ReadReq.misses::total         66729                       # number of ReadReq misses (Count)
system.cpu.icache.ReadReq.missLatency::cpu.inst   1572871000                       # number of ReadReq miss ticks (Tick)
system.cpu.icache.ReadReq.missLatency::total   1572871000                       # number of ReadReq miss ticks (Tick)
system.cpu.icache.ReadReq.accesses::cpu.inst     13140701                       # number of ReadReq accesses(hits+misses) (Count)
system.cpu.icache.ReadReq.accesses::total     13140701                       # number of ReadReq accesses(hits+misses) (Count)
system.cpu.icache.ReadReq.missRate::cpu.inst     0.005078                       # miss rate for ReadReq accesses (Ratio)
system.cpu.icache.ReadReq.missRate::total     0.005078                       # miss rate for ReadReq accesses (Ratio)
system.cpu.icache.ReadReq.avgMissLatency::cpu.inst 23571.026091                       # average ReadReq miss latency ((Tick/Count))
system.cpu.icache.ReadReq.avgMissLatency::total 23571.026091                       # average ReadReq miss latency ((Tick/Count))
system.cpu.icache.ReadReq.mshrMisses::cpu.inst        66729                       # number of ReadReq MSHR misses (Count)
system.cpu.icache.ReadReq.mshrMisses::total        66729                       # number of ReadReq MSHR misses (Count)
system.cpu.icache.ReadReq.mshrMissLatency::cpu.inst   1506143000                       # number of ReadReq MSHR miss ticks (Tick)
system.cpu.icache.ReadReq.mshrMissLatency::total   1506143000                       # number of ReadReq MSHR miss ticks (Tick)
system.cpu.icache.ReadReq.mshrMissRate::cpu.inst     0.005078                       # mshr miss rate for ReadReq accesses (Ratio)
system.cpu.icache.ReadReq.mshrMissRate::total     0.005078                       # mshr miss rate for ReadReq accesses (Ratio)
system.cpu.icache.ReadReq.avgMshrMissLatency::cpu.inst 22571.041077                       # average ReadReq mshr miss latency ((Tick/Count))
system.cpu.icache.ReadReq.avgMshrMissLatency::total 22571.041077                       # average ReadReq mshr miss latency ((Tick/Count))
system.cpu.icache.power_state.pwrStateResidencyTicks::UNDEFINED  29683709000                       # Cumulative time (in ticks) in various power states (Tick)
system.cpu.icache.tags.tagsInUse           426.771511                       # Average ticks per tags in use ((Tick/Count))
system.cpu.icache.tags.totalRefs             13140700                       # Total number of references to valid blocks. (Count)
system.cpu.icache.tags.sampledRefs              66728                       # Sample count of references to valid blocks. (Count)
system.cpu.icache.tags.avgRefs             196.929325                       # Average number of references to valid blocks. ((Count/Count))
system.cpu.icache.tags.warmupTick               77000                       # The tick when the warmup percentage was hit. (Tick)
system.cpu.icache.tags.occupancies::cpu.inst   426.771511                       # Average occupied blocks per tick, per requestor ((Count/Tick))
system.cpu.icache.tags.avgOccs::cpu.inst     0.833538                       # Average percentage of cache occupancy ((Ratio/Tick))
system.cpu.icache.tags.avgOccs::total        0.833538                       # Average percentage of cache occupancy ((Ratio/Tick))
system.cpu.icache.tags.occupanciesTaskId::1024          488                       # Occupied blocks per task id (Count)
system.cpu.icache.tags.ageTaskId_1024::0          127                       # Occupied blocks per task id, per block age (Count)
system.cpu.icache.tags.ageTaskId_1024::1           28                       # Occupied blocks per task id, per block age (Count)
system.cpu.icache.tags.ageTaskId_1024::2           28                       # Occupied blocks per task id, per block age (Count)
system.cpu.icache.tags.ageTaskId_1024::3           87                       # Occupied blocks per task id, per block age (Count)
system.cpu.icache.tags.ageTaskId_1024::4          218                       # Occupied blocks per task id, per block age (Count)
system.cpu.icache.tags.ratioOccsTaskId::1024     0.953125                       # Ratio of occupied blocks and all blocks, per task id (Ratio)
system.cpu.icache.tags.tagAccesses           26348130                       # Number of tag accesses (Count)
system.cpu.icache.tags.dataAccesses          26348130                       # Number of data accesses (Count)
system.cpu.icache.tags.power_state.pwrStateResidencyTicks::UNDEFINED  29683709000                       # Cumulative time (in ticks) in various power states (Tick)
system.cpu.mmu.alignFaults                          0                       # Number of MMU faults due to alignment restrictions (Count)
system.cpu.mmu.prefetchFaults                       0                       # Number of MMU faults due to prefetch (Count)
system.cpu.mmu.domainFaults                         0                       # Number of MMU faults due to domain restrictions (Count)
system.cpu.mmu.permsFaults                          0                       # Number of MMU faults due to permissions restrictions (Count)
system.cpu.mmu.dtb.readHits                         0                       # Read hits (Count)
system.cpu.mmu.dtb.readMisses                       0                       # Read misses (Count)
system.cpu.mmu.dtb.writeHits                        0                       # Write hits (Count)
system.cpu.mmu.dtb.writeMisses                      0                       # Write misses (Count)
system.cpu.mmu.dtb.inserts                          0                       # Number of times an entry is inserted into the TLB (Count)
system.cpu.mmu.dtb.flushTlb                         1                       # Number of times complete TLB was flushed (Count)
system.cpu.mmu.dtb.flushTlbMva                      0                       # Number of times TLB was flushed by MVA (Count)
system.cpu.mmu.dtb.flushTlbMvaAsid                  0                       # Number of times TLB was flushed by MVA & ASID (Count)
system.cpu.mmu.dtb.flushTlbAsid                     0                       # Number of times TLB was flushed by ASID (Count)
system.cpu.mmu.dtb.flushedEntries                   0                       # Number of entries that have been flushed from TLB (Count)
system.cpu.mmu.dtb.readAccesses                     0                       # Read accesses (Count)
system.cpu.mmu.dtb.writeAccesses                    0                       # Write accesses (Count)
system.cpu.mmu.dtb.hits                             0                       # Total TLB (inst and data) hits (Count)
system.cpu.mmu.dtb.misses                           0                       # Total TLB (inst and data) misses (Count)
system.cpu.mmu.dtb.accesses                         0                       # Total TLB (inst and data) accesses (Count)
system.cpu.mmu.dtb_walker.walks                     0                       # Table walker walks requested (Count)
system.cpu.mmu.dtb_walker.requestOrigin_Requested::Data            0                       # Table walker requests started/completed, data/inst (Count)
system.cpu.mmu.dtb_walker.requestOrigin_Requested::Inst            0                       # Table walker requests started/completed, data/inst (Count)
system.cpu.mmu.dtb_walker.requestOrigin_Requested::total            0                       # Table walker requests started/completed, data/inst (Count)
system.cpu.mmu.dtb_walker.requestOrigin_Completed::Data            0                       # Table walker requests started/completed, data/inst (Count)
system.cpu.mmu.dtb_walker.requestOrigin_Completed::Inst            0                       # Table walker requests started/completed, data/inst (Count)
system.cpu.mmu.dtb_walker.requestOrigin_Completed::total            0                       # Table walker requests started/completed, data/inst (Count)
system.cpu.mmu.dtb_walker.requestOrigin::total            0                       # Table walker requests started/completed, data/inst (Count)
system.cpu.mmu.dtb_walker.power_state.pwrStateResidencyTicks::UNDEFINED  29683709000                       # Cumulative time (in ticks) in various power states (Tick)
system.cpu.mmu.itb.instHits                         0                       # Inst hits (Count)
system.cpu.mmu.itb.instMisses                       0                       # Inst misses (Count)
system.cpu.mmu.itb.inserts                          0                       # Number of times an entry is inserted into the TLB (Count)
system.cpu.mmu.itb.flushTlb                         1                       # Number of times complete TLB was flushed (Count)
system.cpu.mmu.itb.flushTlbMva                      0                       # Number of times TLB was flushed by MVA (Count)
system.cpu.mmu.itb.flushTlbMvaAsid                  0                       # Number of times TLB was flushed by MVA & ASID (Count)
system.cpu.mmu.itb.flushTlbAsid                     0                       # Number of times TLB was flushed by ASID (Count)
system.cpu.mmu.itb.flushedEntries                   0                       # Number of entries that have been flushed from TLB (Count)
system.cpu.mmu.itb.instAccesses                     0                       # Inst accesses (Count)
system.cpu.mmu.itb.hits                             0                       # Total TLB (inst and data) hits (Count)
system.cpu.mmu.itb.misses                           0                       # Total TLB (inst and data) misses (Count)
system.cpu.mmu.itb.accesses                         0                       # Total TLB (inst and data) accesses (Count)
system.cpu.mmu.itb_walker.walks                     0                       # Table walker walks requested (Count)
system.cpu.mmu.itb_walker.requestOrigin_Requested::Data            0                       # Table walker requests started/completed, data/inst (Count)
system.cpu.mmu.itb_walker.requestOrigin_Requested::Inst            0                       # Table walker requests started/completed, data/inst (Count)
system.cpu.mmu.itb_walker.requestOrigin_Requested::total            0                       # Table walker requests started/completed, data/inst (Count)
system.cpu.mmu.itb_walker.requestOrigin_Completed::Data            0                       # Table walker requests started/completed, data/inst (Count)
system.cpu.mmu.itb_walker.requestOrigin_Completed::Inst            0                       # Table walker requests started/completed, data/inst (Count)
system.cpu.mmu.itb_walker.requestOrigin_Completed::total            0                       # Table walker requests started/completed, data/inst (Count)
system.cpu.mmu.itb_walker.requestOrigin::total            0                       # Table walker requests started/completed, data/inst (Count)
system.cpu.mmu.itb_walker.power_state.pwrStateResidencyTicks::UNDEFINED  29683709000                       # Cumulative time (in ticks) in various power states (Tick)
system.cpu.mmu.l2_shared.instHits                   0                       # Inst hits (Count)
system.cpu.mmu.l2_shared.instMisses                 0                       # Inst misses (Count)
system.cpu.mmu.l2_shared.inserts                    0                       # Number of times an entry is inserted into the TLB (Count)
system.cpu.mmu.l2_shared.flushTlb                   1                       # Number of times complete TLB was flushed (Count)
system.cpu.mmu.l2_shared.flushTlbMva                0                       # Number of times TLB was flushed by MVA (Count)
system.cpu.mmu.l2_shared.flushTlbMvaAsid            0                       # Number of times TLB was flushed by MVA & ASID (Count)
system.cpu.mmu.l2_shared.flushTlbAsid               0                       # Number of times TLB was flushed by ASID (Count)
system.cpu.mmu.l2_shared.flushedEntries             0                       # Number of entries that have been flushed from TLB (Count)
system.cpu.mmu.l2_shared.instAccesses               0                       # Inst accesses (Count)
system.cpu.mmu.l2_shared.hits                       0                       # Total TLB (inst and data) hits (Count)
system.cpu.mmu.l2_shared.misses                     0                       # Total TLB (inst and data) misses (Count)
system.cpu.mmu.l2_shared.accesses                   0                       # Total TLB (inst and data) accesses (Count)
system.cpu.mmu.stage2_dtb.readHits                  0                       # Read hits (Count)
system.cpu.mmu.stage2_dtb.readMisses                0                       # Read misses (Count)
system.cpu.mmu.stage2_dtb.writeHits                 0                       # Write hits (Count)
system.cpu.mmu.stage2_dtb.writeMisses               0                       # Write misses (Count)
system.cpu.mmu.stage2_dtb.inserts                   0                       # Number of times an entry is inserted into the TLB (Count)
system.cpu.mmu.stage2_dtb.flushTlb                  1                       # Number of times complete TLB was flushed (Count)
system.cpu.mmu.stage2_dtb.flushTlbMva               0                       # Number of times TLB was flushed by MVA (Count)
system.cpu.mmu.stage2_dtb.flushTlbMvaAsid            0                       # Number of times TLB was flushed by MVA & ASID (Count)
system.cpu.mmu.stage2_dtb.flushTlbAsid              0                       # Number of times TLB was flushed by ASID (Count)
system.cpu.mmu.stage2_dtb.flushedEntries            0                       # Number of entries that have been flushed from TLB (Count)
system.cpu.mmu.stage2_dtb.readAccesses              0                       # Read accesses (Count)
system.cpu.mmu.stage2_dtb.writeAccesses             0                       # Write accesses (Count)
system.cpu.mmu.stage2_dtb.hits                      0                       # Total TLB (inst and data) hits (Count)
system.cpu.mmu.stage2_dtb.misses                    0                       # Total TLB (inst and data) misses (Count)
system.cpu.mmu.stage2_dtb.accesses                  0                       # Total TLB (inst and data) accesses (Count)
system.cpu.mmu.stage2_dtb_walker.walks              0                       # Table walker walks requested (Count)
system.cpu.mmu.stage2_dtb_walker.requestOrigin_Requested::Data            0                       # Table walker requests started/completed, data/inst (Count)
system.cpu.mmu.stage2_dtb_walker.requestOrigin_Requested::Inst            0                       # Table walker requests started/completed, data/inst (Count)
system.cpu.mmu.stage2_dtb_walker.requestOrigin_Requested::total            0                       # Table walker requests started/completed, data/inst (Count)
system.cpu.mmu.stage2_dtb_walker.requestOrigin_Completed::Data            0                       # Table walker requests started/completed, data/inst (Count)
system.cpu.mmu.stage2_dtb_walker.requestOrigin_Completed::Inst            0                       # Table walker requests started/completed, data/inst (Count)
system.cpu.mmu.stage2_dtb_walker.requestOrigin_Completed::total            0                       # Table walker requests started/completed, data/inst (Count)
system.cpu.mmu.stage2_dtb_walker.requestOrigin::total            0                       # Table walker requests started/completed, data/inst (Count)
system.cpu.mmu.stage2_dtb_walker.power_state.pwrStateResidencyTicks::UNDEFINED  29683709000                       # Cumulative time (in ticks) in various power states (Tick)
system.cpu.mmu.stage2_itb.instHits                  0                       # Inst hits (Count)
system.cpu.mmu.stage2_itb.instMisses                0                       # Inst misses (Count)
system.cpu.mmu.stage2_itb.inserts                   0                       # Number of times an entry is inserted into the TLB (Count)
system.cpu.mmu.stage2_itb.flushTlb                  1                       # Number of times complete TLB was flushed (Count)
system.cpu.mmu.stage2_itb.flushTlbMva               0                       # Number of times TLB was flushed by MVA (Count)
system.cpu.mmu.stage2_itb.flushTlbMvaAsid            0                       # Number of times TLB was flushed by MVA & ASID (Count)
system.cpu.mmu.stage2_itb.flushTlbAsid              0                       # Number of times TLB was flushed by ASID (Count)
system.cpu.mmu.stage2_itb.flushedEntries            0                       # Number of entries that have been flushed from TLB (Count)
system.cpu.mmu.stage2_itb.instAccesses              0                       # Inst accesses (Count)
system.cpu.mmu.stage2_itb.hits                      0                       # Total TLB (inst and data) hits (Count)
system.cpu.mmu.stage2_itb.misses                    0                       # Total TLB (inst and data) misses (Count)
system.cpu.mmu.stage2_itb.accesses                  0                       # Total TLB (inst and data) accesses (Count)
system.cpu.mmu.stage2_itb_walker.walks              0                       # Table walker walks requested (Count)
system.cpu.mmu.stage2_itb_walker.requestOrigin_Requested::Data            0                       # Table walker requests started/completed, data/inst (Count)
system.cpu.mmu.stage2_itb_walker.requestOrigin_Requested::Inst            0                       # Table walker requests started/completed, data/inst (Count)
system.cpu.mmu.stage2_itb_walker.requestOrigin_Requested::total            0                       # Table walker requests started/completed, data/inst (Count)
system.cpu.mmu.stage2_itb_walker.requestOrigin_Completed::Data            0                       # Table walker requests started/completed, data/inst (Count)
system.cpu.mmu.stage2_itb_walker.requestOrigin_Completed::Inst            0                       # Table walker requests started/completed, data/inst (Count)
system.cpu.mmu.stage2_itb_walker.requestOrigin_Completed::total            0                       # Table walker requests started/completed, data/inst (Count)
system.cpu.mmu.stage2_itb_walker.requestOrigin::total            0                       # Table walker requests started/completed, data/inst (Count)
system.cpu.mmu.stage2_itb_walker.power_state.pwrStateResidencyTicks::UNDEFINED  29683709000                       # Cumulative time (in ticks) in various power states (Tick)
system.cpu.power_state.pwrStateResidencyTicks::ON  29683709000                       # Cumulative time (in ticks) in various power states (Tick)
system.cpu.thread_0.numInsts                 42834982                       # Number of Instructions committed (Count)
system.cpu.thread_0.numOps                   47175355                       # Number of Ops committed (Count)
system.cpu.thread_0.numMemRefs                      0                       # Number of Memory References (Count)
system.cpu.workload.numSyscalls                  4122                       # Number of system calls (Count)
system.cpu_clk_domain.clock                       500                       # Clock period in ticks (Tick)
system.cpu_voltage_domain.voltage                   1                       # Voltage in Volts (Volt)
system.mem_ctrls.avgPriority_writebacks::samples      8244.00                       # Average QoS priority value for accepted requests (Count)
system.mem_ctrls.avgPriority_cpu.inst::samples      1106.00                       # Average QoS priority value for accepted requests (Count)
system.mem_ctrls.avgPriority_cpu.data::samples     27385.00                       # Average QoS priority value for accepted requests (Count)
system.mem_ctrls.priorityMinLatency      0.000000018750                       # per QoS priority minimum request to response latency (Second)
system.mem_ctrls.priorityMaxLatency      0.025765210500                       # per QoS priority maximum request to response latency (Second)
system.mem_ctrls.numReadWriteTurnArounds          416                       # Number of turnarounds from READ to WRITE (Count)
system.mem_ctrls.numWriteReadTurnArounds          417                       # Number of turnarounds from WRITE to READ (Count)
system.mem_ctrls.numStayReadState              140799                       # Number of times bus staying in READ state (Count)
system.mem_ctrls.numStayWriteState               7841                       # Number of times bus staying in WRITE state (Count)
system.mem_ctrls.readReqs                       98352                       # Number of read requests accepted (Count)
system.mem_ctrls.writeReqs                      77329                       # Number of write requests accepted (Count)
system.mem_ctrls.readBursts                     98352                       # Number of controller read bursts, including those serviced by the write queue (Count)
system.mem_ctrls.writeBursts                    77329                       # Number of controller write bursts, including those merged in the write queue (Count)
system.mem_ctrls.servicedByWrQ                  69861                       # Number of controller read bursts serviced by the write queue (Count)
system.mem_ctrls.mergedWrBursts                 69085                       # Number of controller write bursts merged with an existing one (Count)
system.mem_ctrls.neitherReadNorWriteReqs            0                       # Number of requests that are neither read nor write (Count)
system.mem_ctrls.avgRdQLen                       1.00                       # Average read queue length when enqueuing ((Count/Tick))
system.mem_ctrls.avgWrQLen                      26.76                       # Average write queue length when enqueuing ((Count/Tick))
system.mem_ctrls.numRdRetry                         0                       # Number of times read queue was full causing retry (Count)
system.mem_ctrls.numWrRetry                         1                       # Number of times write queue was full causing retry (Count)
system.mem_ctrls.readPktSize::0                     0                       # Read request sizes (log2) (Count)
system.mem_ctrls.readPktSize::1                     0                       # Read request sizes (log2) (Count)
system.mem_ctrls.readPktSize::2                     0                       # Read request sizes (log2) (Count)
system.mem_ctrls.readPktSize::3                     0                       # Read request sizes (log2) (Count)
system.mem_ctrls.readPktSize::4                     0                       # Read request sizes (log2) (Count)
system.mem_ctrls.readPktSize::5                     0                       # Read request sizes (log2) (Count)
system.mem_ctrls.readPktSize::6                 98352                       # Read request sizes (log2) (Count)
system.mem_ctrls.writePktSize::0                    0                       # Write request sizes (log2) (Count)
system.mem_ctrls.writePktSize::1                    0                       # Write request sizes (log2) (Count)
system.mem_ctrls.writePktSize::2                    0                       # Write request sizes (log2) (Count)
system.mem_ctrls.writePktSize::3                    0                       # Write request sizes (log2) (Count)
system.mem_ctrls.writePktSize::4                    0                       # Write request sizes (log2) (Count)
system.mem_ctrls.writePktSize::5                    0                       # Write request sizes (log2) (Count)
system.mem_ctrls.writePktSize::6                77329                       # Write request sizes (log2) (Count)
system.mem_ctrls.rdQLenPdf::0                   28155                       # What read queue length does an incoming req see (Count)
system.mem_ctrls.rdQLenPdf::1                     325                       # What read queue length does an incoming req see (Count)
system.mem_ctrls.rdQLenPdf::2                      11                       # What read queue length does an incoming req see (Count)
system.mem_ctrls.rdQLenPdf::3                       0                       # What read queue length does an incoming req see (Count)
system.mem_ctrls.rdQLenPdf::4                       0                       # What read queue length does an incoming req see (Count)
system.mem_ctrls.rdQLenPdf::5                       0                       # What read queue length does an incoming req see (Count)
system.mem_ctrls.rdQLenPdf::6                       0                       # What read queue length does an incoming req see (Count)
system.mem_ctrls.rdQLenPdf::7                       0                       # What read queue length does an incoming req see (Count)
system.mem_ctrls.rdQLenPdf::8                       0                       # What read queue length does an incoming req see (Count)
system.mem_ctrls.rdQLenPdf::9                       0                       # What read queue length does an incoming req see (Count)
system.mem_ctrls.rdQLenPdf::10                      0                       # What read queue length does an incoming req see (Count)
system.mem_ctrls.rdQLenPdf::11                      0                       # What read queue length does an incoming req see (Count)
system.mem_ctrls.rdQLenPdf::12                      0                       # What read queue length does an incoming req see (Count)
system.mem_ctrls.rdQLenPdf::13                      0                       # What read queue length does an incoming req see (Count)
system.mem_ctrls.rdQLenPdf::14                      0                       # What read queue length does an incoming req see (Count)
system.mem_ctrls.rdQLenPdf::15                      0                       # What read queue length does an incoming req see (Count)
system.mem_ctrls.rdQLenPdf::16                      0                       # What read queue length does an incoming req see (Count)
system.mem_ctrls.rdQLenPdf::17                      0                       # What read queue length does an incoming req see (Count)
system.mem_ctrls.rdQLenPdf::18                      0                       # What read queue length does an incoming req see (Count)
system.mem_ctrls.rdQLenPdf::19                      0                       # What read queue length does an incoming req see (Count)
system.mem_ctrls.rdQLenPdf::20                      0                       # What read queue length does an incoming req see (Count)
system.mem_ctrls.rdQLenPdf::21                      0                       # What read queue length does an incoming req see (Count)
system.mem_ctrls.rdQLenPdf::22                      0                       # What read queue length does an incoming req see (Count)
system.mem_ctrls.rdQLenPdf::23                      0                       # What read queue length does an incoming req see (Count)
system.mem_ctrls.rdQLenPdf::24                      0                       # What read queue length does an incoming req see (Count)
system.mem_ctrls.rdQLenPdf::25                      0                       # What read queue length does an incoming req see (Count)
system.mem_ctrls.rdQLenPdf::26                      0                       # What read queue length does an incoming req see (Count)
system.mem_ctrls.rdQLenPdf::27                      0                       # What read queue length does an incoming req see (Count)
system.mem_ctrls.rdQLenPdf::28                      0                       # What read queue length does an incoming req see (Count)
system.mem_ctrls.rdQLenPdf::29                      0                       # What read queue length does an incoming req see (Count)
system.mem_ctrls.rdQLenPdf::30                      0                       # What read queue length does an incoming req see (Count)
system.mem_ctrls.rdQLenPdf::31                      0                       # What read queue length does an incoming req see (Count)
system.mem_ctrls.wrQLenPdf::0                       1                       # What write queue length does an incoming req see (Count)
system.mem_ctrls.wrQLenPdf::1                       1                       # What write queue length does an incoming req see (Count)
system.mem_ctrls.wrQLenPdf::2                       1                       # What write queue length does an incoming req see (Count)
system.mem_ctrls.wrQLenPdf::3                       1                       # What write queue length does an incoming req see (Count)
system.mem_ctrls.wrQLenPdf::4                       1                       # What write queue length does an incoming req see (Count)
system.mem_ctrls.wrQLenPdf::5                       1                       # What write queue length does an incoming req see (Count)
system.mem_ctrls.wrQLenPdf::6                       1                       # What write queue length does an incoming req see (Count)
system.mem_ctrls.wrQLenPdf::7                       1                       # What write queue length does an incoming req see (Count)
system.mem_ctrls.wrQLenPdf::8                       1                       # What write queue length does an incoming req see (Count)
system.mem_ctrls.wrQLenPdf::9                       1                       # What write queue length does an incoming req see (Count)
system.mem_ctrls.wrQLenPdf::10                      1                       # What write queue length does an incoming req see (Count)
system.mem_ctrls.wrQLenPdf::11                      1                       # What write queue length does an incoming req see (Count)
system.mem_ctrls.wrQLenPdf::12                      1                       # What write queue length does an incoming req see (Count)
system.mem_ctrls.wrQLenPdf::13                      1                       # What write queue length does an incoming req see (Count)
system.mem_ctrls.wrQLenPdf::14                      1                       # What write queue length does an incoming req see (Count)
system.mem_ctrls.wrQLenPdf::15                    304                       # What write queue length does an incoming req see (Count)
system.mem_ctrls.wrQLenPdf::16                    320                       # What write queue length does an incoming req see (Count)
system.mem_ctrls.wrQLenPdf::17                    424                       # What write queue length does an incoming req see (Count)
system.mem_ctrls.wrQLenPdf::18                    427                       # What write queue length does an incoming req see (Count)
system.mem_ctrls.wrQLenPdf::19                    429                       # What write queue length does an incoming req see (Count)
system.mem_ctrls.wrQLenPdf::20                    429                       # What write queue length does an incoming req see (Count)
system.mem_ctrls.wrQLenPdf::21                    434                       # What write queue length does an incoming req see (Count)
system.mem_ctrls.wrQLenPdf::22                    433                       # What write queue length does an incoming req see (Count)
system.mem_ctrls.wrQLenPdf::23                    436                       # What write queue length does an incoming req see (Count)
system.mem_ctrls.wrQLenPdf::24                    440                       # What write queue length does an incoming req see (Count)
system.mem_ctrls.wrQLenPdf::25                    444                       # What write queue length does an incoming req see (Count)
system.mem_ctrls.wrQLenPdf::26                    451                       # What write queue length does an incoming req see (Count)
system.mem_ctrls.wrQLenPdf::27                    462                       # What write queue length does an incoming req see (Count)
system.mem_ctrls.wrQLenPdf::28                    459                       # What write queue length does an incoming req see (Count)
system.mem_ctrls.wrQLenPdf::29                    463                       # What write queue length does an incoming req see (Count)
system.mem_ctrls.wrQLenPdf::30                    469                       # What write queue length does an incoming req see (Count)
system.mem_ctrls.wrQLenPdf::31                    470                       # What write queue length does an incoming req see (Count)
system.mem_ctrls.wrQLenPdf::32                    466                       # What write queue length does an incoming req see (Count)
system.mem_ctrls.wrQLenPdf::33                     62                       # What write queue length does an incoming req see (Count)
system.mem_ctrls.wrQLenPdf::34                     51                       # What write queue length does an incoming req see (Count)
system.mem_ctrls.wrQLenPdf::35                     50                       # What write queue length does an incoming req see (Count)
system.mem_ctrls.wrQLenPdf::36                     39                       # What write queue length does an incoming req see (Count)
system.mem_ctrls.wrQLenPdf::37                     42                       # What write queue length does an incoming req see (Count)
system.mem_ctrls.wrQLenPdf::38                     28                       # What write queue length does an incoming req see (Count)
system.mem_ctrls.wrQLenPdf::39                     30                       # What write queue length does an incoming req see (Count)
system.mem_ctrls.wrQLenPdf::40                     28                       # What write queue length does an incoming req see (Count)
system.mem_ctrls.wrQLenPdf::41                     15                       # What write queue length does an incoming req see (Count)
system.mem_ctrls.wrQLenPdf::42                     12                       # What write queue length does an incoming req see (Count)
system.mem_ctrls.wrQLenPdf::43                      9                       # What write queue length does an incoming req see (Count)
system.mem_ctrls.wrQLenPdf::44                      9                       # What write queue length does an incoming req see (Count)
system.mem_ctrls.wrQLenPdf::45                      5                       # What write queue length does an incoming req see (Count)
system.mem_ctrls.wrQLenPdf::46                      5                       # What write queue length does an incoming req see (Count)
system.mem_ctrls.wrQLenPdf::47                      4                       # What write queue length does an incoming req see (Count)
system.mem_ctrls.wrQLenPdf::48                      4                       # What write queue length does an incoming req see (Count)
system.mem_ctrls.wrQLenPdf::49                      8                       # What write queue length does an incoming req see (Count)
system.mem_ctrls.wrQLenPdf::50                      5                       # What write queue length does an incoming req see (Count)
system.mem_ctrls.wrQLenPdf::51                      7                       # What write queue length does an incoming req see (Count)
system.mem_ctrls.wrQLenPdf::52                      5                       # What write queue length does an incoming req see (Count)
system.mem_ctrls.wrQLenPdf::53                      7                       # What write queue length does an incoming req see (Count)
system.mem_ctrls.wrQLenPdf::54                      5                       # What write queue length does an incoming req see (Count)
system.mem_ctrls.wrQLenPdf::55                      7                       # What write queue length does an incoming req see (Count)
system.mem_ctrls.wrQLenPdf::56                      5                       # What write queue length does an incoming req see (Count)
system.mem_ctrls.wrQLenPdf::57                      7                       # What write queue length does an incoming req see (Count)
system.mem_ctrls.wrQLenPdf::58                      5                       # What write queue length does an incoming req see (Count)
system.mem_ctrls.wrQLenPdf::59                      7                       # What write queue length does an incoming req see (Count)
system.mem_ctrls.wrQLenPdf::60                      5                       # What write queue length does an incoming req see (Count)
system.mem_ctrls.wrQLenPdf::61                      1                       # What write queue length does an incoming req see (Count)
system.mem_ctrls.wrQLenPdf::62                      1                       # What write queue length does an incoming req see (Count)
system.mem_ctrls.wrQLenPdf::63                      1                       # What write queue length does an incoming req see (Count)
system.mem_ctrls.rdPerTurnAround::samples          417                       # Reads before turning the bus around for writes (Count)
system.mem_ctrls.rdPerTurnAround::mean      68.321343                       # Reads before turning the bus around for writes (Count)
system.mem_ctrls.rdPerTurnAround::stdev    151.080332                       # Reads before turning the bus around for writes (Count)
system.mem_ctrls.rdPerTurnAround::0-31            352     84.41%     84.41% # Reads before turning the bus around for writes (Count)
system.mem_ctrls.rdPerTurnAround::32-63            19      4.56%     88.97% # Reads before turning the bus around for writes (Count)
system.mem_ctrls.rdPerTurnAround::64-95             1      0.24%     89.21% # Reads before turning the bus around for writes (Count)
system.mem_ctrls.rdPerTurnAround::96-127            1      0.24%     89.45% # Reads before turning the bus around for writes (Count)
system.mem_ctrls.rdPerTurnAround::160-191            1      0.24%     89.69% # Reads before turning the bus around for writes (Count)
system.mem_ctrls.rdPerTurnAround::192-223            1      0.24%     89.93% # Reads before turning the bus around for writes (Count)
system.mem_ctrls.rdPerTurnAround::224-255            3      0.72%     90.65% # Reads before turning the bus around for writes (Count)
system.mem_ctrls.rdPerTurnAround::256-287            3      0.72%     91.37% # Reads before turning the bus around for writes (Count)
system.mem_ctrls.rdPerTurnAround::288-319            1      0.24%     91.61% # Reads before turning the bus around for writes (Count)
system.mem_ctrls.rdPerTurnAround::320-351            4      0.96%     92.57% # Reads before turning the bus around for writes (Count)
system.mem_ctrls.rdPerTurnAround::352-383            2      0.48%     93.05% # Reads before turning the bus around for writes (Count)
system.mem_ctrls.rdPerTurnAround::384-415            2      0.48%     93.53% # Reads before turning the bus around for writes (Count)
system.mem_ctrls.rdPerTurnAround::416-447            1      0.24%     93.76% # Reads before turning the bus around for writes (Count)
system.mem_ctrls.rdPerTurnAround::448-479            1      0.24%     94.00% # Reads before turning the bus around for writes (Count)
system.mem_ctrls.rdPerTurnAround::480-511            2      0.48%     94.48% # Reads before turning the bus around for writes (Count)
system.mem_ctrls.rdPerTurnAround::512-543            2      0.48%     94.96% # Reads before turning the bus around for writes (Count)
system.mem_ctrls.rdPerTurnAround::544-575            5      1.20%     96.16% # Reads before turning the bus around for writes (Count)
system.mem_ctrls.rdPerTurnAround::576-607            5      1.20%     97.36% # Reads before turning the bus around for writes (Count)
system.mem_ctrls.rdPerTurnAround::608-639            6      1.44%     98.80% # Reads before turning the bus around for writes (Count)
system.mem_ctrls.rdPerTurnAround::640-671            4      0.96%     99.76% # Reads before turning the bus around for writes (Count)
system.mem_ctrls.rdPerTurnAround::896-927            1      0.24%    100.00% # Reads before turning the bus around for writes (Count)
[...]
system.mem_ctrls.dram.bwInstRead::cpu.inst    143869892                       # Instruction read bandwidth from this memory ((Byte/Second))
system.mem_ctrls.dram.bwInstRead::total     143869892                       # Instruction read bandwidth from this memory ((Byte/Second))
system.mem_ctrls.dram.bwWrite::writebacks     23908603                       # Write bandwidth from this memory ((Byte/Second))
system.mem_ctrls.dram.bwWrite::total         23908603                       # Write bandwidth from this memory ((Byte/Second))
system.mem_ctrls.dram.bwTotal::writebacks     23908603                       # Total bandwidth to/from this memory ((Byte/Second))
system.mem_ctrls.dram.bwTotal::cpu.inst     143869892                       # Total bandwidth to/from this memory ((Byte/Second))
system.mem_ctrls.dram.bwTotal::cpu.data      68181237                       # Total bandwidth to/from this memory ((Byte/Second))
system.mem_ctrls.dram.bwTotal::total        235959731                       # Total bandwidth to/from this memory ((Byte/Second))
system.mem_ctrls.dram.readBursts                28490                       # Number of DRAM read bursts (Count)
system.mem_ctrls.dram.writeBursts                8218                       # Number of DRAM write bursts (Count)
system.mem_ctrls.dram.perBankRdBursts::0          931                       # Per bank write bursts (Count)
system.mem_ctrls.dram.perBankRdBursts::1          904                       # Per bank write bursts (Count)
system.mem_ctrls.dram.perBankRdBursts::2         1261                       # Per bank write bursts (Count)
system.mem_ctrls.dram.perBankRdBursts::3          494                       # Per bank write bursts (Count)
system.mem_ctrls.dram.perBankRdBursts::4          905                       # Per bank write bursts (Count)
system.mem_ctrls.dram.perBankRdBursts::5         1873                       # Per bank write bursts (Count)
system.mem_ctrls.dram.perBankRdBursts::6         1803                       # Per bank write bursts (Count)
system.mem_ctrls.dram.perBankRdBursts::7         1756                       # Per bank write bursts (Count)
system.mem_ctrls.dram.perBankRdBursts::8         3216                       # Per bank write bursts (Count)
system.mem_ctrls.dram.perBankRdBursts::9         3184                       # Per bank write bursts (Count)
system.mem_ctrls.dram.perBankRdBursts::10         4428                       # Per bank write bursts (Count)
system.mem_ctrls.dram.perBankRdBursts::11         3082                       # Per bank write bursts (Count)
system.mem_ctrls.dram.perBankRdBursts::12         2183                       # Per bank write bursts (Count)
system.mem_ctrls.dram.perBankRdBursts::13          703                       # Per bank write bursts (Count)
system.mem_ctrls.dram.perBankRdBursts::14          847                       # Per bank write bursts (Count)
system.mem_ctrls.dram.perBankRdBursts::15          920                       # Per bank write bursts (Count)
system.mem_ctrls.dram.perBankWrBursts::0          502                       # Per bank write bursts (Count)
system.mem_ctrls.dram.perBankWrBursts::1          524                       # Per bank write bursts (Count)
system.mem_ctrls.dram.perBankWrBursts::2          462                       # Per bank write bursts (Count)
system.mem_ctrls.dram.perBankWrBursts::3          236                       # Per bank write bursts (Count)
system.mem_ctrls.dram.perBankWrBursts::4          438                       # Per bank write bursts (Count)
system.mem_ctrls.dram.perBankWrBursts::5          605                       # Per bank write bursts (Count)
system.mem_ctrls.dram.perBankWrBursts::6          549                       # Per bank write bursts (Count)
system.mem_ctrls.dram.perBankWrBursts::7          519                       # Per bank write bursts (Count)
system.mem_ctrls.dram.perBankWrBursts::8          542                       # Per bank write bursts (Count)
system.mem_ctrls.dram.perBankWrBursts::9          542                       # Per bank write bursts (Count)
system.mem_ctrls.dram.perBankWrBursts::10          516                       # Per bank write bursts (Count)
system.mem_ctrls.dram.perBankWrBursts::11          579                       # Per bank write bursts (Count)
system.mem_ctrls.dram.perBankWrBursts::12          543                       # Per bank write bursts (Count)
system.mem_ctrls.dram.perBankWrBursts::13          539                       # Per bank write bursts (Count)
system.mem_ctrls.dram.perBankWrBursts::14          523                       # Per bank write bursts (Count)
system.mem_ctrls.dram.perBankWrBursts::15          599                       # Per bank write bursts (Count)
system.mem_ctrls.dram.totQLat               242001750                       # Total ticks spent queuing (Tick)
system.mem_ctrls.dram.totBusLat             142450000                       # Total ticks spent in databus transfers (Tick)
system.mem_ctrls.dram.totMemAccLat          776189250                       # Total ticks spent from burst creation until serviced by the DRAM (Tick)
system.mem_ctrls.dram.avgQLat                 8494.27                       # Average queueing delay per DRAM burst ((Tick/Count))
system.mem_ctrls.dram.avgBusLat               5000.00                       # Average bus latency per DRAM burst ((Tick/Count))
system.mem_ctrls.dram.avgMemAccLat           27244.27                       # Average memory access latency per DRAM burst ((Tick/Count))
system.mem_ctrls.dram.readRowHits               20876                       # Number of row buffer hits during reads (Count)
system.mem_ctrls.dram.writeRowHits               7181                       # Number of row buffer hits during writes (Count)
system.mem_ctrls.dram.readRowHitRate            73.27                       # Row buffer hit rate for reads (Ratio)
system.mem_ctrls.dram.writeRowHitRate           87.38                       # Row buffer hit rate for writes (Ratio)
system.mem_ctrls.dram.bytesPerActivate::samples         8644                       # Bytes accessed per row activation (Byte)
system.mem_ctrls.dram.bytesPerActivate::mean   271.644609                       # Bytes accessed per row activation (Byte)
system.mem_ctrls.dram.bytesPerActivate::gmean   190.854857                       # Bytes accessed per row activation (Byte)
system.mem_ctrls.dram.bytesPerActivate::stdev   238.144875                       # Bytes accessed per row activation (Byte)
system.mem_ctrls.dram.bytesPerActivate::0-127         2547     29.47%     29.47% # Bytes accessed per row activation (Byte)
system.mem_ctrls.dram.bytesPerActivate::128-255         1909     22.08%     51.55% # Bytes accessed per row activation (Byte)
system.mem_ctrls.dram.bytesPerActivate::256-383         2209     25.56%     77.11% # Bytes accessed per row activation (Byte)
system.mem_ctrls.dram.bytesPerActivate::384-511          768      8.88%     85.99% # Bytes accessed per row activation (Byte)
system.mem_ctrls.dram.bytesPerActivate::512-639          396      4.58%     90.57% # Bytes accessed per row activation (Byte)
system.mem_ctrls.dram.bytesPerActivate::640-767          202      2.34%     92.91% # Bytes accessed per row activation (Byte)
system.mem_ctrls.dram.bytesPerActivate::768-895          191      2.21%     95.12% # Bytes accessed per row activation (Byte)
system.mem_ctrls.dram.bytesPerActivate::896-1023           86      0.99%     96.11% # Bytes accessed per row activation (Byte)
system.mem_ctrls.dram.bytesPerActivate::1024-1151          336      3.89%    100.00% # Bytes accessed per row activation (Byte)
system.mem_ctrls.dram.bytesPerActivate::total         8644                       # Bytes accessed per row activation (Byte)
system.mem_ctrls.dram.bytesRead               1823360                       # Total bytes read (Byte)
system.mem_ctrls.dram.bytesWritten             525952                       # Total bytes written (Byte)
system.mem_ctrls.dram.avgRdBW               61.426286                       # Average DRAM read bandwidth in MiBytes/s ((Byte/Second))
system.mem_ctrls.dram.avgWrBW               17.718540                       # Average DRAM write bandwidth in MiBytes/s ((Byte/Second))
system.mem_ctrls.dram.peakBW                 12800.00                       # Theoretical peak bandwidth in MiByte/s ((Byte/Second))
system.mem_ctrls.dram.busUtil                    0.62                       # Data bus utilization in percentage (Ratio)
system.mem_ctrls.dram.busUtilRead                0.48                       # Data bus utilization in percentage for reads (Ratio)
system.mem_ctrls.dram.busUtilWrite               0.14                       # Data bus utilization in percentage for writes (Ratio)
system.mem_ctrls.dram.pageHitRate               76.43                       # Row buffer hit rate, read and write combined (Ratio)
system.mem_ctrls.dram.power_state.pwrStateResidencyTicks::UNDEFINED  29683709000                       # Cumulative time (in ticks) in various power states (Tick)
system.mem_ctrls.dram.rank0.actEnergy        23740500                       # Energy for activate commands per rank (pJ) (Joule)
system.mem_ctrls.dram.rank0.preEnergy        12599400                       # Energy for precharge commands per rank (pJ) (Joule)
system.mem_ctrls.dram.rank0.readEnergy       70878780                       # Energy for read commands per rank (pJ) (Joule)
system.mem_ctrls.dram.rank0.writeEnergy      19992600                       # Energy for write commands per rank (pJ) (Joule)
system.mem_ctrls.dram.rank0.refreshEnergy 2343007680.000000                       # Energy for refresh commands per rank (pJ) (Joule)
system.mem_ctrls.dram.rank0.actBackEnergy   5959310100                       # Energy for active background per rank (pJ) (Joule)
system.mem_ctrls.dram.rank0.preBackEnergy   6380178240                       # Energy for precharge background per rank (pJ) (Joule)
system.mem_ctrls.dram.rank0.actPowerDownEnergy            0                       # Energy for active power-down per rank (pJ) (Joule)
system.mem_ctrls.dram.rank0.prePowerDownEnergy            0                       # Energy for precharge power-down per rank (pJ) (Joule)
system.mem_ctrls.dram.rank0.selfRefreshEnergy            0                       # Energy for self refresh per rank (pJ) (Joule)
system.mem_ctrls.dram.rank0.totalEnergy   14809707300                       # Total energy per rank (pJ) (Joule)
system.mem_ctrls.dram.rank0.averagePower   498.917009                       # Core power per rank (mW) (Watt)
system.mem_ctrls.dram.rank0.totalIdleTime            0                       # Total Idle time Per DRAM Rank (Tick)
system.mem_ctrls.dram.rank0.pwrStateTime::IDLE  16533205250                       # Time in different power states (Tick)
system.mem_ctrls.dram.rank0.pwrStateTime::REF    991120000                       # Time in different power states (Tick)
system.mem_ctrls.dram.rank0.pwrStateTime::SREF            0                       # Time in different power states (Tick)
system.mem_ctrls.dram.rank0.pwrStateTime::PRE_PDN            0                       # Time in different power states (Tick)
system.mem_ctrls.dram.rank0.pwrStateTime::ACT  12159383750                       # Time in different power states (Tick)
system.mem_ctrls.dram.rank0.pwrStateTime::ACT_PDN            0                       # Time in different power states (Tick)
system.mem_ctrls.dram.rank1.actEnergy        38020500                       # Energy for activate commands per rank (pJ) (Joule)
system.mem_ctrls.dram.rank1.preEnergy        20196990                       # Energy for precharge commands per rank (pJ) (Joule)
system.mem_ctrls.dram.rank1.readEnergy      132539820                       # Energy for read commands per rank (pJ) (Joule)
system.mem_ctrls.dram.rank1.writeEnergy      22879260                       # Energy for write commands per rank (pJ) (Joule)
system.mem_ctrls.dram.rank1.refreshEnergy 2343007680.000000                       # Energy for refresh commands per rank (pJ) (Joule)
system.mem_ctrls.dram.rank1.actBackEnergy   6880645560                       # Energy for active background per rank (pJ) (Joule)
system.mem_ctrls.dram.rank1.preBackEnergy   5604316800                       # Energy for precharge background per rank (pJ) (Joule)
system.mem_ctrls.dram.rank1.actPowerDownEnergy            0                       # Energy for active power-down per rank (pJ) (Joule)
system.mem_ctrls.dram.rank1.prePowerDownEnergy            0                       # Energy for precharge power-down per rank (pJ) (Joule)
system.mem_ctrls.dram.rank1.selfRefreshEnergy            0                       # Energy for self refresh per rank (pJ) (Joule)
system.mem_ctrls.dram.rank1.totalEnergy   15041606610                       # Total energy per rank (pJ) (Joule)
system.mem_ctrls.dram.rank1.averagePower   506.729351                       # Core power per rank (mW) (Watt)
system.mem_ctrls.dram.rank1.totalIdleTime            0                       # Total Idle time Per DRAM Rank (Tick)
system.mem_ctrls.dram.rank1.pwrStateTime::IDLE  14507309500                       # Time in different power states (Tick)
system.mem_ctrls.dram.rank1.pwrStateTime::REF    991120000                       # Time in different power states (Tick)
system.mem_ctrls.dram.rank1.pwrStateTime::SREF            0                       # Time in different power states (Tick)
system.mem_ctrls.dram.rank1.pwrStateTime::PRE_PDN            0                       # Time in different power states (Tick)
system.mem_ctrls.dram.rank1.pwrStateTime::ACT  14185279500                       # Time in different power states (Tick)
system.mem_ctrls.dram.rank1.pwrStateTime::ACT_PDN            0                       # Time in different power states (Tick)
system.mem_ctrls.power_state.pwrStateResidencyTicks::UNDEFINED  29683709000                       # Cumulative time (in ticks) in various power states (Tick)
system.membus.transDist::ReadResp               92538                       # Transaction distribution (Count)
system.membus.transDist::WritebackDirty         11089                       # Transaction distribution (Count)
system.membus.transDist::WritebackClean         66240                       # Transaction distribution (Count)
system.membus.transDist::CleanEvict             21562                       # Transaction distribution (Count)
system.membus.transDist::ReadExReq               5813                       # Transaction distribution (Count)
system.membus.transDist::ReadExResp              5813                       # Transaction distribution (Count)
system.membus.transDist::ReadCleanReq           66729                       # Transaction distribution (Count)
system.membus.transDist::ReadSharedReq          25810                       # Transaction distribution (Count)
system.membus.transDist::InvalidateReq           1540                       # Transaction distribution (Count)
system.membus.pktCount_system.cpu.icache.mem_side_port::system.mem_ctrls.port       199697                       # Packet count per connected requestor and responder (Count)
system.membus.pktCount_system.cpu.dcache.mem_side_port::system.mem_ctrls.port        97437                       # Packet count per connected requestor and responder (Count)
system.membus.pktCount::total                  297134                       # Packet count per connected requestor and responder (Count)
system.membus.pktSize_system.cpu.icache.mem_side_port::system.mem_ctrls.port      8509952                       # Cumulative packet size per connected requestor and responder (Byte)
system.membus.pktSize_system.cpu.dcache.mem_side_port::system.mem_ctrls.port      2733568                       # Cumulative packet size per connected requestor and responder (Byte)
system.membus.pktSize::total                 11243520                       # Cumulative packet size per connected requestor and responder (Byte)
system.membus.snoops                                0                       # Total snoops (Count)
system.membus.snoopTraffic                          0                       # Total snoop traffic (Byte)
system.membus.snoopFanout::samples              99892                       # Request fanout histogram (Count)
system.membus.snoopFanout::mean              0.000020                       # Request fanout histogram (Count)
system.membus.snoopFanout::stdev             0.004475                       # Request fanout histogram (Count)
system.membus.snoopFanout::underflows               0      0.00%      0.00% # Request fanout histogram (Count)
system.membus.snoopFanout::0                    99890    100.00%    100.00% # Request fanout histogram (Count)
system.membus.snoopFanout::1                        2      0.00%    100.00% # Request fanout histogram (Count)
system.membus.snoopFanout::2                        0      0.00%    100.00% # Request fanout histogram (Count)
system.membus.snoopFanout::overflows                0      0.00%    100.00% # Request fanout histogram (Count)
system.membus.snoopFanout::min_value                0                       # Request fanout histogram (Count)
system.membus.snoopFanout::max_value                1                       # Request fanout histogram (Count)
system.membus.snoopFanout::total                99892                       # Request fanout histogram (Count)
system.membus.power_state.pwrStateResidencyTicks::UNDEFINED  29683709000                       # Cumulative time (in ticks) in various power states (Tick)
system.membus.reqLayer0.occupancy           524479250                       # Layer occupancy (ticks) (Tick)
system.membus.reqLayer0.utilization               0.0                       # Layer utilization (Ratio)
system.membus.respLayer1.occupancy          333998000                       # Layer occupancy (ticks) (Tick)
system.membus.respLayer1.utilization              0.0                       # Layer utilization (Ratio)
system.membus.respLayer2.occupancy          166850500                       # Layer occupancy (ticks) (Tick)
system.membus.respLayer2.utilization              0.0                       # Layer utilization (Ratio)
system.membus.snoop_filter.totRequests         198784                       # Total number of requests made to the snoop filter. (Count)
system.membus.snoop_filter.hitSingleRequests        98893                       # Number of requests hitting in the snoop filter with a single holder of the requested data. (Count)
system.membus.snoop_filter.hitMultiRequests            1                       # Number of requests hitting in the snoop filter with multiple (>1) holders of the requested data. (Count)
system.membus.snoop_filter.totSnoops                0                       # Total number of snoops made to the snoop filter. (Count)
system.membus.snoop_filter.hitSingleSnoops            0                       # Number of snoops hitting in the snoop filter with a single holder of the requested data. (Count)
system.membus.snoop_filter.hitMultiSnoops            0                       # Number of snoops hitting in the snoop filter with multiple (>1) holders of the requested data. (Count)
system.voltage_domain.voltage                       1                       # Voltage in Volts (Volt)
system.workload.inst.arm                            0                       # number of arm instructions executed (Count)
system.workload.inst.quiesce                        0                       # number of quiesce instructions executed (Count)
system.cpu.idleCycles                         5598943                       # Total number of cycles that the object has spent stopped (Unspecified)
system.cpu.tickCycles                        53768475                       # Number of cycles that the object actually ticked (Unspecified)

---------- End Simulation Statistics   ----------
