
---------- Begin Simulation Statistics ----------
simSeconds                                   0.027867                       # Number of seconds simulated (Second)
simTicks                                  27866685000                       # Number of ticks simulated (Tick)
finalTick                                 27866685000                       # Number of ticks from beginning of simulation (restored from checkpoints and never reset) (Tick)
simFreq                                  1000000000000                       # The number of ticks per simulated second ((Tick/Second))
hostSeconds                                     78.06                       # Real time elapsed on the host (Second)
hostTickRate                                357004927                       # The number of ticks simulated per host second (ticks/s) ((Tick/Second))
hostMemory                                     640016                       # Number of bytes of host memory used (Byte)
simInsts                                     48982758                       # Number of instructions simulated (Count)
simOps                                       48982773                       # Number of ops (including micro ops) simulated (Count)
hostInstRate                                   627526                       # Simulator instruction rate (inst/s) ((Count/Second))
hostOpRate                                     627526                       # Simulator op (including micro ops) rate (op/s) ((Count/Second))
system.clk_domain.clock                          1000                       # Clock period in ticks (Tick)
system.cpu.numCycles                         55733371                       # Number of cpu cycles simulated (Cycle)
system.cpu.numWorkItemsStarted                      0                       # Number of work items this cpu started (Count)
system.cpu.numWorkItemsCompleted                    0                       # Number of work items this cpu completed (Count)
system.cpu.instsAdded                        53259672                       # Number of instructions added to the IQ (excludes non-spec) (Count)
system.cpu.nonSpecInstsAdded                    33458                       # Number of non-speculative instructions added to the IQ (Count)
system.cpu.instsIssued                       52188208                       # Number of instructions issued (Count)
system.cpu.squashedInstsIssued                  71553                       # Number of squashed instructions issued (Count)
system.cpu.squashedInstsExamined              4310356                       # Number of squashed instructions iterated over during squash; mainly for profiling (Count)
system.cpu.squashedOperandsExamined           2017651                       # Number of squashed operands that are examined and possibly removed from graph (Count)
system.cpu.squashedNonSpecRemoved                4710                       # Number of squashed non-spec instructions that were removed (Count)
system.cpu.numIssuedDist::samples            54722576                       # Number of insts issued each cycle (Count)
system.cpu.numIssuedDist::mean               0.953687                       # Number of insts issued each cycle (Count)
system.cpu.numIssuedDist::stdev              1.703458                       # Number of insts issued each cycle (Count)
system.cpu.numIssuedDist::underflows                0      0.00%      0.00% # Number of insts issued each cycle (Count)
system.cpu.numIssuedDist::0                  35636437     65.12%     65.12% # Number of insts issued each cycle (Count)
system.cpu.numIssuedDist::1                   6329575     11.57%     76.69% # Number of insts issued each cycle (Count)
system.cpu.numIssuedDist::2                   4740139      8.66%     85.35% # Number of insts issued each cycle (Count)
system.cpu.numIssuedDist::3                   2596040      4.74%     90.09% # Number of insts issued each cycle (Count)
system.cpu.numIssuedDist::4                   2022037      3.70%     93.79% # Number of insts issued each cycle (Count)
system.cpu.numIssuedDist::5                   1403346      2.56%     96.35% # Number of insts issued each cycle (Count)
system.cpu.numIssuedDist::6                    956219      1.75%     98.10% # Number of insts issued each cycle (Count)
system.cpu.numIssuedDist::7                    562221      1.03%     99.13% # Number of insts issued each cycle (Count)
system.cpu.numIssuedDist::8                    476562      0.87%    100.00% # Number of insts issued each cycle (Count)
system.cpu.numIssuedDist::overflows                 0      0.00%    100.00% # Number of insts issued each cycle (Count)
system.cpu.numIssuedDist::min_value                 0                       # Number of insts issued each cycle (Count)
system.cpu.numIssuedDist::max_value                 8                       # Number of insts issued each cycle (Count)
system.cpu.numIssuedDist::total              54722576                       # Number of insts issued each cycle (Count)
system.cpu.statFuBusy::No_OpClass                   0      0.00%      0.00% # attempts to use FU when none available (Count)
system.cpu.statFuBusy::IntAlu                  270227     18.74%     18.74% # attempts to use FU when none available (Count)
system.cpu.statFuBusy::IntMult                  81407      5.65%     24.39% # attempts to use FU when none available (Count)
system.cpu.statFuBusy::IntDiv                    1253      0.09%     24.47% # attempts to use FU when none available (Count)
system.cpu.statFuBusy::FloatAdd                     0      0.00%     24.47% # attempts to use FU when none available (Count)
system.cpu.statFuBusy::FloatCmp                     0      0.00%     24.47% # attempts to use FU when none available (Count)
system.cpu.statFuBusy::FloatCvt                     0      0.00%     24.47% # attempts to use FU when none available (Count)
system.cpu.statFuBusy::FloatMult                    0      0.00%     24.47% # attempts to use FU when none available (Count)
system.cpu.statFuBusy::FloatMultAcc                 0      0.00%     24.47% # attempts to use FU when none available (Count)
system.cpu.statFuBusy::FloatDiv                     0      0.00%     24.47% # attempts to use FU when none available (Count)
system.cpu.statFuBusy::FloatMisc                    0      0.00%     24.47% # attempts to use FU when none available (Count)
system.cpu.statFuBusy::FloatSqrt                    0      0.00%     24.47% # attempts to use FU when none available (Count)
system.cpu.statFuBusy::SimdAdd                      0      0.00%     24.47% # attempts to use FU when none available (Count)
system.cpu.statFuBusy::SimdAddAcc                   0      0.00%     24.47% # attempts to use FU when none available (Count)
system.cpu.statFuBusy::SimdAlu                      0      0.00%     24.47% # attempts to use FU when none available (Count)
system.cpu.statFuBusy::SimdCmp                      0      0.00%     24.47% # attempts to use FU when none available (Count)
system.cpu.statFuBusy::SimdCvt                      0      0.00%     24.47% # attempts to use FU when none available (Count)
system.cpu.statFuBusy::SimdMisc                     0      0.00%     24.47% # attempts to use FU when none available (Count)
system.cpu.statFuBusy::SimdMult                     0      0.00%     24.47% # attempts to use FU when none available (Count)
system.cpu.statFuBusy::SimdMultAcc                  0      0.00%     24.47% # attempts to use FU when none available (Count)
system.cpu.statFuBusy::SimdShift                    0      0.00%     24.47% # attempts to use FU when none available (Count)
system.cpu.statFuBusy::SimdShiftAcc                 0      0.00%     24.47% # attempts to use FU when none available (Count)
system.cpu.statFuBusy::SimdDiv                      0      0.00%     24.47% # attempts to use FU when none available (Count)
system.cpu.statFuBusy::SimdSqrt                     0      0.00%     24.47% # attempts to use FU when none available (Count)
system.cpu.statFuBusy::SimdFloatAdd                 0      0.00%     24.47% # attempts to use FU when none available (Count)
system.cpu.statFuBusy::SimdFloatAlu                 0      0.00%     24.47% # attempts to use FU when none available (Count)
system.cpu.statFuBusy::SimdFloatCmp                 0      0.00%     24.47% # attempts to use FU when none available (Count)
system.cpu.statFuBusy::SimdFloatCvt                 0      0.00%     24.47% # attempts to use FU when none available (Count)
system.cpu.statFuBusy::SimdFloatDiv                 0      0.00%     24.47% # attempts to use FU when none available (Count)
system.cpu.statFuBusy::SimdFloatMisc                0      0.00%     24.47% # attempts to use FU when none available (Count)
system.cpu.statFuBusy::SimdFloatMult                0      0.00%     24.47% # attempts to use FU when none available (Count)
system.cpu.statFuBusy::SimdFloatMultAcc             0      0.00%     24.47% # attempts to use FU when none available (Count)
system.cpu.statFuBusy::SimdFloatSqrt                0      0.00%     24.47% # attempts to use FU when none available (Count)
system.cpu.statFuBusy::SimdReduceAdd                0      0.00%     24.47% # attempts to use FU when none available (Count)
system.cpu.statFuBusy::SimdReduceAlu                0      0.00%     24.47% # attempts to use FU when none available (Count)
system.cpu.statFuBusy::SimdReduceCmp                0      0.00%     24.47% # attempts to use FU when none available (Count)
system.cpu.statFuBusy::SimdFloatReduceAdd            0      0.00%     24.47% # attempts to use FU when none available (Count)
system.cpu.statFuBusy::SimdFloatReduceCmp            0      0.00%     24.47% # attempts to use FU when none available (Count)
system.cpu.statFuBusy::SimdAes                      0      0.00%     24.47% # attempts to use FU when none available (Count)
system.cpu.statFuBusy::SimdAesMix                   0      0.00%     24.47% # attempts to use FU when none available (Count)
system.cpu.statFuBusy::SimdSha1Hash                 0      0.00%     24.47% # attempts to use FU when none available (Count)
system.cpu.statFuBusy::SimdSha1Hash2                0      0.00%     24.47% # attempts to use FU when none available (Count)
system.cpu.statFuBusy::SimdSha256Hash               0      0.00%     24.47% # attempts to use FU when none available (Count)
system.cpu.statFuBusy::SimdSha256Hash2              0      0.00%     24.47% # attempts to use FU when none available (Count)
system.cpu.statFuBusy::SimdShaSigma2                0      0.00%     24.47% # attempts to use FU when none available (Count)
system.cpu.statFuBusy::SimdShaSigma3                0      0.00%     24.47% # attempts to use FU when none available (Count)
system.cpu.statFuBusy::SimdPredAlu                  0      0.00%     24.47% # attempts to use FU when none available (Count)
system.cpu.statFuBusy::MemRead                 604119     41.90%     66.37% # attempts to use FU when none available (Count)
system.cpu.statFuBusy::MemWrite                482215     33.44%     99.82% # attempts to use FU when none available (Count)
system.cpu.statFuBusy::FloatMemRead              2656      0.18%    100.00% # attempts to use FU when none available (Count)
system.cpu.statFuBusy::FloatMemWrite                4      0.00%    100.00% # attempts to use FU when none available (Count)
system.cpu.statFuBusy::IprAccess                    0      0.00%    100.00% # attempts to use FU when none available (Count)
system.cpu.statFuBusy::InstPrefetch                 0      0.00%    100.00% # attempts to use FU when none available (Count)
system.cpu.statIssuedInstType_0::No_OpClass        28722      0.06%      0.06% # Number of instructions issued per FU type, per thread (Count)
system.cpu.statIssuedInstType_0::IntAlu      33398931     64.00%     64.05% # Number of instructions issued per FU type, per thread (Count)
system.cpu.statIssuedInstType_0::IntMult       479285      0.92%     64.97% # Number of instructions issued per FU type, per thread (Count)
system.cpu.statIssuedInstType_0::IntDiv        319423      0.61%     65.58% # Number of instructions issued per FU type, per thread (Count)
system.cpu.statIssuedInstType_0::FloatAdd       278548      0.53%     66.12% # Number of instructions issued per FU type, per thread (Count)
system.cpu.statIssuedInstType_0::FloatCmp        16388      0.03%     66.15% # Number of instructions issued per FU type, per thread (Count)
system.cpu.statIssuedInstType_0::FloatCvt        28672      0.05%     66.20% # Number of instructions issued per FU type, per thread (Count)
system.cpu.statIssuedInstType_0::FloatMult       262186      0.50%     66.71% # Number of instructions issued per FU type, per thread (Count)
system.cpu.statIssuedInstType_0::FloatMultAcc            0      0.00%     66.71% # Number of instructions issued per FU type, per thread (Count)
system.cpu.statIssuedInstType_0::FloatDiv            0      0.00%     66.71% # Number of instructions issued per FU type, per thread (Count)
system.cpu.statIssuedInstType_0::FloatMisc         4096      0.01%     66.71% # Number of instructions issued per FU type, per thread (Count)
system.cpu.statIssuedInstType_0::FloatSqrt            0      0.00%     66.71% # Number of instructions issued per FU type, per thread (Count)
system.cpu.statIssuedInstType_0::SimdAdd            0      0.00%     66.71% # Number of instructions issued per FU type, per thread (Count)
system.cpu.statIssuedInstType_0::SimdAddAcc            0      0.00%     66.71% # Number of instructions issued per FU type, per thread (Count)
system.cpu.statIssuedInstType_0::SimdAlu            0      0.00%     66.71% # Number of instructions issued per FU type, per thread (Count)
system.cpu.statIssuedInstType_0::SimdCmp            0      0.00%     66.71% # Number of instructions issued per FU type, per thread (Count)
system.cpu.statIssuedInstType_0::SimdCvt            0      0.00%     66.71% # Number of instructions issued per FU type, per thread (Count)
system.cpu.statIssuedInstType_0::SimdMisc            0      0.00%     66.71% # Number of instructions issued per FU type, per thread (Count)
system.cpu.statIssuedInstType_0::SimdMult            0      0.00%     66.71% # Number of instructions issued per FU type, per thread (Count)
system.cpu.statIssuedInstType_0::SimdMultAcc            0      0.00%     66.71% # Number of instructions issued per FU type, per thread (Count)
system.cpu.statIssuedInstType_0::SimdShift            0      0.00%     66.71% # Number of instructions issued per FU type, per thread (Count)
system.cpu.statIssuedInstType_0::SimdShiftAcc            0      0.00%     66.71% # Number of instructions issued per FU type, per thread (Count)
system.cpu.statIssuedInstType_0::SimdDiv            0      0.00%     66.71% # Number of instructions issued per FU type, per thread (Count)
system.cpu.statIssuedInstType_0::SimdSqrt            0      0.00%     66.71% # Number of instructions issued per FU type, per thread (Count)
system.cpu.statIssuedInstType_0::SimdFloatAdd            0      0.00%     66.71% # Number of instructions issued per FU type, per thread (Count)
system.cpu.statIssuedInstType_0::SimdFloatAlu            0      0.00%     66.71% # Number of instructions issued per FU type, per thread (Count)
system.cpu.statIssuedInstType_0::SimdFloatCmp            0      0.00%     66.71% # Number of instructions issued per FU type, per thread (Count)
system.cpu.statIssuedInstType_0::SimdFloatCvt            0      0.00%     66.71% # Number of instructions issued per FU type, per thread (Count)
system.cpu.statIssuedInstType_0::SimdFloatDiv            0      0.00%     66.71% # Number of instructions issued per FU type, per thread (Count)
system.cpu.statIssuedInstType_0::SimdFloatMisc            0      0.00%     66.71% # Number of instructions issued per FU type, per thread (Count)
system.cpu.statIssuedInstType_0::SimdFloatMult            0      0.00%     66.71% # Number of instructions issued per FU type, per thread (Count)
system.cpu.statIssuedInstType_0::SimdFloatMultAcc            0      0.00%     66.71% # Number of instructions issued per FU type, per thread (Count)
system.cpu.statIssuedInstType_0::SimdFloatSqrt            0      0.00%     66.71% # Number of instructions issued per FU type, per thread (Count)
system.cpu.statIssuedInstType_0::SimdReduceAdd            0      0.00%     66.71% # Number of instructions issued per FU type, per thread (Count)
system.cpu.statIssuedInstType_0::SimdReduceAlu            0      0.00%     66.71% # Number of instructions issued per FU type, per thread (Count)
system.cpu.statIssuedInstType_0::SimdReduceCmp            0      0.00%     66.71% # Number of instructions issued per FU type, per thread (Count)
system.cpu.statIssuedInstType_0::SimdFloatReduceAdd            0      0.00%     66.71% # Number of instructions issued per FU type, per thread (Count)
system.cpu.statIssuedInstType_0::SimdFloatReduceCmp            0      0.00%     66.71% # Number of instructions issued per FU type, per thread (Count)
system.cpu.statIssuedInstType_0::SimdAes            0      0.00%     66.71% # Number of instructions issued per FU type, per thread (Count)
system.cpu.statIssuedInstType_0::SimdAesMix            0      0.00%     66.71% # Number of instructions issued per FU type, per thread (Count)
system.cpu.statIssuedInstType_0::SimdSha1Hash            0      0.00%     66.71% # Number of instructions issued per FU type, per thread (Count)
system.cpu.statIssuedInstType_0::SimdSha1Hash2            0      0.00%     66.71% # Number of instructions issued per FU type, per thread (Count)
system.cpu.statIssuedInstType_0::SimdSha256Hash            0      0.00%     66.71% # Number of instructions issued per FU type, per thread (Count)
system.cpu.statIssuedInstType_0::SimdSha256Hash2            0      0.00%     66.71% # Number of instructions issued per FU type, per thread (Count)
system.cpu.statIssuedInstType_0::SimdShaSigma2            0      0.00%     66.71% # Number of instructions issued per FU type, per thread (Count)
system.cpu.statIssuedInstType_0::SimdShaSigma3            0      0.00%     66.71% # Number of instructions issued per FU type, per thread (Count)
system.cpu.statIssuedInstType_0::SimdPredAlu            0      0.00%     66.71% # Number of instructions issued per FU type, per thread (Count)
system.cpu.statIssuedInstType_0::MemRead     10560064     20.23%     86.95% # Number of instructions issued per FU type, per thread (Count)
system.cpu.statIssuedInstType_0::MemWrite      5066445      9.71%     96.66% # Number of instructions issued per FU type, per thread (Count)
system.cpu.statIssuedInstType_0::FloatMemRead      1163763      2.23%     98.89% # Number of instructions issued per FU type, per thread (Count)
system.cpu.statIssuedInstType_0::FloatMemWrite       581685      1.11%    100.00% # Number of instructions issued per FU type, per thread (Count)
system.cpu.statIssuedInstType_0::IprAccess            0      0.00%    100.00% # Number of instructions issued per FU type, per thread (Count)
system.cpu.statIssuedInstType_0::InstPrefetch            0      0.00%    100.00% # Number of instructions issued per FU type, per thread (Count)
system.cpu.statIssuedInstType_0::total       52188208                       # Number of instructions issued per FU type, per thread (Count)
system.cpu.issueRate                         0.936391                       # Inst issue rate ((Count/Cycle))
system.cpu.fuBusy                             1441881                       # FU busy when requested (Count)
system.cpu.fuBusyRate                        0.027628                       # FU busy rate (busy events/executed inst) ((Count/Count))
system.cpu.intInstQueueReads                155939085                       # Number of integer instruction queue reads (Count)
system.cpu.intInstQueueWrites                55176021                       # Number of integer instruction queue writes (Count)
system.cpu.intInstQueueWakeupAccesses        49349910                       # Number of integer instruction queue wakeup accesses (Count)
system.cpu.fpInstQueueReads                   4673341                       # Number of floating instruction queue reads (Count)
system.cpu.fpInstQueueWrites                  2448788                       # Number of floating instruction queue writes (Count)
system.cpu.fpInstQueueWakeupAccesses          2318109                       # Number of floating instruction queue wakeup accesses (Count)
system.cpu.vecInstQueueReads                        0                       # Number of vector instruction queue reads (Count)
system.cpu.vecInstQueueWrites                       0                       # Number of vector instruction queue writes (Count)
system.cpu.vecInstQueueWakeupAccesses               0                       # Number of vector instruction queue wakeup accesses (Count)
system.cpu.intAluAccesses                    51263369                       # Number of integer alu accesses (Count)
system.cpu.fpAluAccesses                      2337998                       # Number of floating point alu accesses (Count)
system.cpu.vecAluAccesses                           0                       # Number of vector alu accesses (Count)
system.cpu.numInsts                          51850781                       # Number of executed instructions (Count)
system.cpu.numLoadInsts                      11601314                       # Number of load instructions executed (Count)
system.cpu.numSquashedInsts                    337427                       # Number of squashed instructions skipped in execute (Count)
system.cpu.numSwp                                   0                       # Number of swp insts executed (Count)
system.cpu.numNop                                   0                       # Number of nop insts executed (Count)
system.cpu.numRefs                           17235010                       # Number of memory reference insts executed (Count)
system.cpu.numBranches                        9025311                       # Number of branches executed (Count)
system.cpu.numStoreInsts                      5633696                       # Number of stores executed (Count)
system.cpu.numRate                           0.930336                       # Inst execution rate ((Count/Cycle))
system.cpu.timesIdled                           50569                       # Number of times that the entire CPU went into an idle state and unscheduled itself (Count)
system.cpu.idleCycles                         1010795                       # Total number of cycles that the CPU has spent unscheduled due to idling (Cycle)
system.cpu.committedInsts                    48982758                       # Number of Instructions Simulated (Count)
system.cpu.committedOps                      48982773                       # Number of Ops (including micro ops) Simulated (Count)
system.cpu.cpi                               1.137816                       # CPI: Cycles Per Instruction ((Cycle/Count))
system.cpu.totalCpi                          1.137816                       # CPI: Total CPI of All Threads ((Cycle/Count))
system.cpu.ipc                               0.878877                       # IPC: Instructions Per Cycle ((Count/Cycle))
system.cpu.totalIpc                          0.878877                       # IPC: Total IPC of All Threads ((Count/Cycle))
system.cpu.intRegfileReads                   64568122                       # Number of integer regfile reads (Count)
system.cpu.intRegfileWrites                  36066210                       # Number of integer regfile writes (Count)
system.cpu.fpRegfileReads                     1712313                       # Number of floating regfile reads (Count)
system.cpu.fpRegfileWrites                    1711951                       # Number of floating regfile writes (Count)
system.cpu.miscRegfileReads                   3461153                       # number of misc regfile reads (Count)
system.cpu.miscRegfileWrites                   589824                       # number of misc regfile writes (Count)
system.cpu.MemDepUnit__0.insertedLoads       11842025                       # Number of loads inserted to the mem dependence unit. (Count)
system.cpu.MemDepUnit__0.insertedStores       5755489                       # Number of stores inserted to the mem dependence unit. (Count)
system.cpu.MemDepUnit__0.conflictingLoads      2757597                       # Number of conflicting loads. (Count)
system.cpu.MemDepUnit__0.conflictingStores      1188416                       # Number of conflicting stores. (Count)
system.cpu.MemDepUnit__1.insertedLoads              0                       # Number of loads inserted to the mem dependence unit. (Count)
system.cpu.MemDepUnit__1.insertedStores             0                       # Number of stores inserted to the mem dependence unit. (Count)
system.cpu.MemDepUnit__1.conflictingLoads            0                       # Number of conflicting loads. (Count)
system.cpu.MemDepUnit__1.conflictingStores            0                       # Number of conflicting stores. (Count)
system.cpu.MemDepUnit__2.insertedLoads              0                       # Number of loads inserted to the mem dependence unit. (Count)
system.cpu.MemDepUnit__2.insertedStores             0                       # Number of stores inserted to the mem dependence unit. (Count)
system.cpu.MemDepUnit__2.conflictingLoads            0                       # Number of conflicting loads. (Count)
system.cpu.MemDepUnit__2.conflictingStores            0                       # Number of conflicting stores. (Count)
system.cpu.MemDepUnit__3.insertedLoads              0                       # Number of loads inserted to the mem dependence unit. (Count)
system.cpu.MemDepUnit__3.insertedStores             0                       # Number of stores inserted to the mem dependence unit. (Count)
system.cpu.MemDepUnit__3.conflictingLoads            0                       # Number of conflicting loads. (Count)
system.cpu.MemDepUnit__3.conflictingStores            0                       # Number of conflicting stores. (Count)
system.cpu.branchPred.lookups                10444888                       # Number of BP lookups (Count)
system.cpu.branchPred.condPredicted           7955136                       # Number of conditional branches predicted (Count)
system.cpu.branchPred.condIncorrect            194486                       # Number of conditional branches incorrect (Count)
system.cpu.branchPred.BTBLookups              5955310                       # Number of BTB lookups (Count)
system.cpu.branchPred.BTBHits                 5931200                       # Number of BTB hits (Count)
system.cpu.branchPred.BTBHitRatio            0.995952                       # BTB Hit Ratio (Ratio)
system.cpu.branchPred.RASUsed                       0                       # Number of times the RAS was used to get a target. (Count)
system.cpu.branchPred.RASIncorrect                  0                       # Number of incorrect RAS predictions. (Count)
system.cpu.branchPred.indirectLookups          600786                       # Number of indirect predictor lookups. (Count)
system.cpu.branchPred.indirectHits             598711                       # Number of indirect target hits. (Count)
system.cpu.branchPred.indirectMisses             2075                       # Number of indirect misses. (Count)
system.cpu.branchPred.indirectMispredicted        19972                       # Number of mispredicted indirect branches. (Count)
system.cpu.commit.commitSquashedInsts         4332160                       # The number of squashed insts skipped by commit (Count)
system.cpu.commit.commitNonSpecStalls           28748                       # The number of times commit has been forced to stall to communicate backwards (Count)
system.cpu.commit.branchMispredicts            182071                       # The number of times a branch was mispredicted (Count)
system.cpu.commit.numCommittedDist::samples     54068731                       # Number of insts commited each cycle (Count)
system.cpu.commit.numCommittedDist::mean     0.905935                       # Number of insts commited each cycle (Count)
system.cpu.commit.numCommittedDist::stdev     2.113843                       # Number of insts commited each cycle (Count)
system.cpu.commit.numCommittedDist::underflows            0      0.00%      0.00% # Number of insts commited each cycle (Count)
system.cpu.commit.numCommittedDist::0        40347381     74.62%     74.62% # Number of insts commited each cycle (Count)
system.cpu.commit.numCommittedDist::1         5086645      9.41%     84.03% # Number of insts commited each cycle (Count)
system.cpu.commit.numCommittedDist::2         2246551      4.15%     88.19% # Number of insts commited each cycle (Count)
system.cpu.commit.numCommittedDist::3         1416025      2.62%     90.80% # Number of insts commited each cycle (Count)
system.cpu.commit.numCommittedDist::4          534197      0.99%     91.79% # Number of insts commited each cycle (Count)
system.cpu.commit.numCommittedDist::5          531511      0.98%     92.78% # Number of insts commited each cycle (Count)
system.cpu.commit.numCommittedDist::6          335405      0.62%     93.40% # Number of insts commited each cycle (Count)
system.cpu.commit.numCommittedDist::7          219950      0.41%     93.80% # Number of insts commited each cycle (Count)
system.cpu.commit.numCommittedDist::8         3351066      6.20%    100.00% # Number of insts commited each cycle (Count)
system.cpu.commit.numCommittedDist::overflows            0      0.00%    100.00% # Number of insts commited each cycle (Count)
system.cpu.commit.numCommittedDist::min_value            0                       # Number of insts commited each cycle (Count)
system.cpu.commit.numCommittedDist::max_value            8                       # Number of insts commited each cycle (Count)
system.cpu.commit.numCommittedDist::total     54068731                       # Number of insts commited each cycle (Count)
system.cpu.commit.instsCommitted             48982758                       # Number of instructions committed (Count)
system.cpu.commit.opsCommitted               48982773                       # Number of ops (including micro ops) committed (Count)
system.cpu.commit.memRefs                    16254198                       # Number of memory references committed (Count)
system.cpu.commit.loads                      10945204                       # Number of loads committed (Count)
system.cpu.commit.amos                             17                       # Number of atomic instructions committed (Count)
system.cpu.commit.membars                          25                       # Number of memory barriers committed (Count)
system.cpu.commit.branches                    8372520                       # Number of branches committed (Count)
system.cpu.commit.vectorInstructions                0                       # Number of committed Vector instructions. (Count)
system.cpu.commit.floating                    2289676                       # Number of committed floating point instructions. (Count)
system.cpu.commit.integer                    47606916                       # Number of committed integer instructions. (Count)
system.cpu.commit.functionCalls               1174802                       # Number of function calls committed. (Count)
system.cpu.commit.committedInstType_0::No_OpClass        24601      0.05%      0.05% # Class of committed instruction (Count)
system.cpu.commit.committedInstType_0::IntAlu     31319113     63.94%     63.99% # Class of committed instruction (Count)
system.cpu.commit.committedInstType_0::IntMult       479222      0.98%     64.97% # Class of committed instruction (Count)
system.cpu.commit.committedInstType_0::IntDiv       315815      0.64%     65.61% # Class of committed instruction (Count)
system.cpu.commit.committedInstType_0::FloatAdd       278528      0.57%     66.18% # Class of committed instruction (Count)
system.cpu.commit.committedInstType_0::FloatCmp        16384      0.03%     66.21% # Class of committed instruction (Count)
system.cpu.commit.committedInstType_0::FloatCvt        28672      0.06%     66.27% # Class of committed instruction (Count)
system.cpu.commit.committedInstType_0::FloatMult       262144      0.54%     66.81% # Class of committed instruction (Count)
system.cpu.commit.committedInstType_0::FloatMultAcc            0      0.00%     66.81% # Class of committed instruction (Count)
system.cpu.commit.committedInstType_0::FloatDiv            0      0.00%     66.81% # Class of committed instruction (Count)
system.cpu.commit.committedInstType_0::FloatMisc         4096      0.01%     66.82% # Class of committed instruction (Count)
system.cpu.commit.committedInstType_0::FloatSqrt            0      0.00%     66.82% # Class of committed instruction (Count)
system.cpu.commit.committedInstType_0::SimdAdd            0      0.00%     66.82% # Class of committed instruction (Count)
system.cpu.commit.committedInstType_0::SimdAddAcc            0      0.00%     66.82% # Class of committed instruction (Count)
system.cpu.commit.committedInstType_0::SimdAlu            0      0.00%     66.82% # Class of committed instruction (Count)
system.cpu.commit.committedInstType_0::SimdCmp            0      0.00%     66.82% # Class of committed instruction (Count)
system.cpu.commit.committedInstType_0::SimdCvt            0      0.00%     66.82% # Class of committed instruction (Count)
system.cpu.commit.committedInstType_0::SimdMisc            0      0.00%     66.82% # Class of committed instruction (Count)
system.cpu.commit.committedInstType_0::SimdMult            0      0.00%     66.82% # Class of committed instruction (Count)
system.cpu.commit.committedInstType_0::SimdMultAcc            0      0.00%     66.82% # Class of committed instruction (Count)
system.cpu.commit.committedInstType_0::SimdShift            0      0.00%     66.82% # Class of committed instruction (Count)
system.cpu.commit.committedInstType_0::SimdShiftAcc            0      0.00%     66.82% # Class of committed instruction (Count)
system.cpu.commit.committedInstType_0::SimdDiv            0      0.00%     66.82% # Class of committed instruction (Count)
system.cpu.commit.committedInstType_0::SimdSqrt            0      0.00%     66.82% # Class of committed instruction (Count)
system.cpu.commit.committedInstType_0::SimdFloatAdd            0      0.00%     66.82% # Class of committed instruction (Count)
system.cpu.commit.committedInstType_0::SimdFloatAlu            0      0.00%     66.82% # Class of committed instruction (Count)
system.cpu.commit.committedInstType_0::SimdFloatCmp            0      0.00%     66.82% # Class of committed instruction (Count)
system.cpu.commit.committedInstType_0::SimdFloatCvt            0      0.00%     66.82% # Class of committed instruction (Count)
system.cpu.commit.committedInstType_0::SimdFloatDiv            0      0.00%     66.82% # Class of committed instruction (Count)
system.cpu.commit.committedInstType_0::SimdFloatMisc            0      0.00%     66.82% # Class of committed instruction (Count)
system.cpu.commit.committedInstType_0::SimdFloatMult            0      0.00%     66.82% # Class of committed instruction (Count)
system.cpu.commit.committedInstType_0::SimdFloatMultAcc            0      0.00%     66.82% # Class of committed instruction (Count)
system.cpu.commit.committedInstType_0::SimdFloatSqrt            0      0.00%     66.82% # Class of committed instruction (Count)
system.cpu.commit.committedInstType_0::SimdReduceAdd            0      0.00%     66.82% # Class of committed instruction (Count)
system.cpu.commit.committedInstType_0::SimdReduceAlu            0      0.00%     66.82% # Class of committed instruction (Count)
system.cpu.commit.committedInstType_0::SimdReduceCmp            0      0.00%     66.82% # Class of committed instruction (Count)
system.cpu.commit.committedInstType_0::SimdFloatReduceAdd            0      0.00%     66.82% # Class of committed instruction (Count)
system.cpu.commit.committedInstType_0::SimdFloatReduceCmp            0      0.00%     66.82% # Class of committed instruction (Count)
system.cpu.commit.committedInstType_0::SimdAes            0      0.00%     66.82% # Class of committed instruction (Count)
system.cpu.commit.committedInstType_0::SimdAesMix            0      0.00%     66.82% # Class of committed instruction (Count)
system.cpu.commit.committedInstType_0::SimdSha1Hash            0      0.00%     66.82% # Class of committed instruction (Count)
system.cpu.commit.committedInstType_0::SimdSha1Hash2            0      0.00%     66.82% # Class of committed instruction (Count)
system.cpu.commit.committedInstType_0::SimdSha256Hash            0      0.00%     66.82% # Class of committed instruction (Count)
system.cpu.commit.committedInstType_0::SimdSha256Hash2            0      0.00%     66.82% # Class of committed instruction (Count)
system.cpu.commit.committedInstType_0::SimdShaSigma2            0      0.00%     66.82% # Class of committed instruction (Count)
system.cpu.commit.committedInstType_0::SimdShaSigma3            0      0.00%     66.82% # Class of committed instruction (Count)
system.cpu.commit.committedInstType_0::SimdPredAlu            0      0.00%     66.82% # Class of committed instruction (Count)
system.cpu.commit.committedInstType_0::MemRead      9818821     20.05%     86.86% # Class of committed instruction (Count)
system.cpu.commit.committedInstType_0::MemWrite      4735525      9.67%     96.53% # Class of committed instruction (Count)
system.cpu.commit.committedInstType_0::FloatMemRead      1126400      2.30%     98.83% # Class of committed instruction (Count)
system.cpu.commit.committedInstType_0::FloatMemWrite       573452      1.17%    100.00% # Class of committed instruction (Count)
system.cpu.commit.committedInstType_0::IprAccess            0      0.00%    100.00% # Class of committed instruction (Count)
system.cpu.commit.committedInstType_0::InstPrefetch            0      0.00%    100.00% # Class of committed instruction (Count)
system.cpu.commit.committedInstType_0::total     48982773                       # Class of committed instruction (Count)
system.cpu.commit.commitEligibleSamples       3351066                       # number cycles where commit BW limit reached (Cycle)
system.cpu.dcache.demandHits::cpu.data       12502607                       # number of demand (read+write) hits (Count)
system.cpu.dcache.demandHits::total          12502607                       # number of demand (read+write) hits (Count)
system.cpu.dcache.overallHits::cpu.data      12502607                       # number of overall hits (Count)
system.cpu.dcache.overallHits::total         12502607                       # number of overall hits (Count)
system.cpu.dcache.demandMisses::cpu.data       439111                       # number of demand (read+write) misses (Count)
system.cpu.dcache.demandMisses::total          439111                       # number of demand (read+write) misses (Count)
system.cpu.dcache.overallMisses::cpu.data       439111                       # number of overall misses (Count)
system.cpu.dcache.overallMisses::total         439111                       # number of overall misses (Count)
system.cpu.dcache.demandMissLatency::cpu.data  23730339071                       # number of demand (read+write) miss ticks (Tick)
system.cpu.dcache.demandMissLatency::total  23730339071                       # number of demand (read+write) miss ticks (Tick)
system.cpu.dcache.overallMissLatency::cpu.data  23730339071                       # number of overall miss ticks (Tick)
system.cpu.dcache.overallMissLatency::total  23730339071                       # number of overall miss ticks (Tick)
system.cpu.dcache.demandAccesses::cpu.data     12941718                       # number of demand (read+write) accesses (Count)
system.cpu.dcache.demandAccesses::total      12941718                       # number of demand (read+write) accesses (Count)
system.cpu.dcache.overallAccesses::cpu.data     12941718                       # number of overall (read+write) accesses (Count)
system.cpu.dcache.overallAccesses::total     12941718                       # number of overall (read+write) accesses (Count)
system.cpu.dcache.demandMissRate::cpu.data     0.033930                       # miss rate for demand accesses (Ratio)
system.cpu.dcache.demandMissRate::total      0.033930                       # miss rate for demand accesses (Ratio)
system.cpu.dcache.overallMissRate::cpu.data     0.033930                       # miss rate for overall accesses (Ratio)
system.cpu.dcache.overallMissRate::total     0.033930                       # miss rate for overall accesses (Ratio)
system.cpu.dcache.demandAvgMissLatency::cpu.data 54041.777753                       # average overall miss latency ((Cycle/Count))
system.cpu.dcache.demandAvgMissLatency::total 54041.777753                       # average overall miss latency ((Cycle/Count))
system.cpu.dcache.overallAvgMissLatency::cpu.data 54041.777753                       # average overall miss latency ((Cycle/Count))
system.cpu.dcache.overallAvgMissLatency::total 54041.777753                       # average overall miss latency ((Cycle/Count))
system.cpu.dcache.blockedCycles::no_mshrs        20991                       # number of cycles access was blocked (Cycle)
system.cpu.dcache.blockedCycles::no_targets          113                       # number of cycles access was blocked (Cycle)
system.cpu.dcache.blockedCauses::no_mshrs          738                       # number of times access was blocked (Count)
system.cpu.dcache.blockedCauses::no_targets            2                       # number of times access was blocked (Count)
system.cpu.dcache.avgBlocked::no_mshrs      28.443089                       # average number of cycles each access was blocked ((Cycle/Count))
system.cpu.dcache.avgBlocked::no_targets    56.500000                       # average number of cycles each access was blocked ((Cycle/Count))
system.cpu.dcache.writebacks::writebacks        22197                       # number of writebacks (Count)
system.cpu.dcache.writebacks::total             22197                       # number of writebacks (Count)
system.cpu.dcache.demandMshrHits::cpu.data       105602                       # number of demand (read+write) MSHR hits (Count)
system.cpu.dcache.demandMshrHits::total        105602                       # number of demand (read+write) MSHR hits (Count)
system.cpu.dcache.overallMshrHits::cpu.data       105602                       # number of overall MSHR hits (Count)
system.cpu.dcache.overallMshrHits::total       105602                       # number of overall MSHR hits (Count)
system.cpu.dcache.demandMshrMisses::cpu.data       333509                       # number of demand (read+write) MSHR misses (Count)
system.cpu.dcache.demandMshrMisses::total       333509                       # number of demand (read+write) MSHR misses (Count)
system.cpu.dcache.overallMshrMisses::cpu.data       333509                       # number of overall MSHR misses (Count)
system.cpu.dcache.overallMshrMisses::total       333509                       # number of overall MSHR misses (Count)
system.cpu.dcache.demandMshrMissLatency::cpu.data  17849511509                       # number of demand (read+write) MSHR miss ticks (Tick)
system.cpu.dcache.demandMshrMissLatency::total  17849511509                       # number of demand (read+write) MSHR miss ticks (Tick)
system.cpu.dcache.overallMshrMissLatency::cpu.data  17849511509                       # number of overall MSHR miss ticks (Tick)
system.cpu.dcache.overallMshrMissLatency::total  17849511509                       # number of overall MSHR miss ticks (Tick)
system.cpu.dcache.demandMshrMissRate::cpu.data     0.025770                       # mshr miss ratio for demand accesses (Ratio)
system.cpu.dcache.demandMshrMissRate::total     0.025770                       # mshr miss ratio for demand accesses (Ratio)
system.cpu.dcache.overallMshrMissRate::cpu.data     0.025770                       # mshr miss ratio for overall accesses (Ratio)
system.cpu.dcache.overallMshrMissRate::total     0.025770                       # mshr miss ratio for overall accesses (Ratio)
system.cpu.dcache.demandAvgMshrMissLatency::cpu.data 53520.329313                       # average overall mshr miss latency ((Cycle/Count))
system.cpu.dcache.demandAvgMshrMissLatency::total 53520.329313                       # average overall mshr miss latency ((Cycle/Count))
system.cpu.dcache.overallAvgMshrMissLatency::cpu.data 53520.329313                       # average overall mshr miss latency ((Cycle/Count))
system.cpu.dcache.overallAvgMshrMissLatency::total 53520.329313                       # average overall mshr miss latency ((Cycle/Count))
system.cpu.dcache.replacements                 333383                       # number of replacements (Count)
system.cpu.dcache.LoadLockedReq.hits::cpu.data            8                       # number of LoadLockedReq hits (Count)
system.cpu.dcache.LoadLockedReq.hits::total            8                       # number of LoadLockedReq hits (Count)
system.cpu.dcache.LoadLockedReq.misses::cpu.data            5                       # number of LoadLockedReq misses (Count)
system.cpu.dcache.LoadLockedReq.misses::total            5                       # number of LoadLockedReq misses (Count)
system.cpu.dcache.LoadLockedReq.missLatency::cpu.data       316000                       # number of LoadLockedReq miss ticks (Tick)
system.cpu.dcache.LoadLockedReq.missLatency::total       316000                       # number of LoadLockedReq miss ticks (Tick)
system.cpu.dcache.LoadLockedReq.accesses::cpu.data           13                       # number of LoadLockedReq accesses(hits+misses) (Count)
system.cpu.dcache.LoadLockedReq.accesses::total           13                       # number of LoadLockedReq accesses(hits+misses) (Count)
system.cpu.dcache.LoadLockedReq.missRate::cpu.data     0.384615                       # miss rate for LoadLockedReq accesses (Ratio)
system.cpu.dcache.LoadLockedReq.missRate::total     0.384615                       # miss rate for LoadLockedReq accesses (Ratio)
system.cpu.dcache.LoadLockedReq.avgMissLatency::cpu.data        63200                       # average LoadLockedReq miss latency ((Tick/Count))
system.cpu.dcache.LoadLockedReq.avgMissLatency::total        63200                       # average LoadLockedReq miss latency ((Tick/Count))
system.cpu.dcache.LoadLockedReq.mshrHits::cpu.data            3                       # number of LoadLockedReq MSHR hits (Count)
system.cpu.dcache.LoadLockedReq.mshrHits::total            3                       # number of LoadLockedReq MSHR hits (Count)
system.cpu.dcache.LoadLockedReq.mshrMisses::cpu.data            2                       # number of LoadLockedReq MSHR misses (Count)
system.cpu.dcache.LoadLockedReq.mshrMisses::total            2                       # number of LoadLockedReq MSHR misses (Count)
system.cpu.dcache.LoadLockedReq.mshrMissLatency::cpu.data       165500                       # number of LoadLockedReq MSHR miss ticks (Tick)
system.cpu.dcache.LoadLockedReq.mshrMissLatency::total       165500                       # number of LoadLockedReq MSHR miss ticks (Tick)
system.cpu.dcache.LoadLockedReq.mshrMissRate::cpu.data     0.153846                       # mshr miss rate for LoadLockedReq accesses (Ratio)
system.cpu.dcache.LoadLockedReq.mshrMissRate::total     0.153846                       # mshr miss rate for LoadLockedReq accesses (Ratio)
system.cpu.dcache.LoadLockedReq.avgMshrMissLatency::cpu.data        82750                       # average LoadLockedReq mshr miss latency ((Tick/Count))
system.cpu.dcache.LoadLockedReq.avgMshrMissLatency::total        82750                       # average LoadLockedReq mshr miss latency ((Tick/Count))
system.cpu.dcache.ReadReq.hits::cpu.data      7221501                       # number of ReadReq hits (Count)
system.cpu.dcache.ReadReq.hits::total         7221501                       # number of ReadReq hits (Count)
system.cpu.dcache.ReadReq.misses::cpu.data       411249                       # number of ReadReq misses (Count)
system.cpu.dcache.ReadReq.misses::total        411249                       # number of ReadReq misses (Count)
system.cpu.dcache.ReadReq.missLatency::cpu.data  22441625500                       # number of ReadReq miss ticks (Tick)
system.cpu.dcache.ReadReq.missLatency::total  22441625500                       # number of ReadReq miss ticks (Tick)
system.cpu.dcache.ReadReq.accesses::cpu.data      7632750                       # number of ReadReq accesses(hits+misses) (Count)
system.cpu.dcache.ReadReq.accesses::total      7632750                       # number of ReadReq accesses(hits+misses) (Count)
system.cpu.dcache.ReadReq.missRate::cpu.data     0.053880                       # miss rate for ReadReq accesses (Ratio)
system.cpu.dcache.ReadReq.missRate::total     0.053880                       # miss rate for ReadReq accesses (Ratio)
system.cpu.dcache.ReadReq.avgMissLatency::cpu.data 54569.434819                       # average ReadReq miss latency ((Tick/Count))
system.cpu.dcache.ReadReq.avgMissLatency::total 54569.434819                       # average ReadReq miss latency ((Tick/Count))
system.cpu.dcache.ReadReq.mshrHits::cpu.data        87215                       # number of ReadReq MSHR hits (Count)
system.cpu.dcache.ReadReq.mshrHits::total        87215                       # number of ReadReq MSHR hits (Count)
system.cpu.dcache.ReadReq.mshrMisses::cpu.data       324034                       # number of ReadReq MSHR misses (Count)
system.cpu.dcache.ReadReq.mshrMisses::total       324034                       # number of ReadReq MSHR misses (Count)
system.cpu.dcache.ReadReq.mshrMissLatency::cpu.data  17476429000                       # number of ReadReq MSHR miss ticks (Tick)
system.cpu.dcache.ReadReq.mshrMissLatency::total  17476429000                       # number of ReadReq MSHR miss ticks (Tick)
system.cpu.dcache.ReadReq.mshrMissRate::cpu.data     0.042453                       # mshr miss rate for ReadReq accesses (Ratio)
system.cpu.dcache.ReadReq.mshrMissRate::total     0.042453                       # mshr miss rate for ReadReq accesses (Ratio)
system.cpu.dcache.ReadReq.avgMshrMissLatency::cpu.data 53933.935945                       # average ReadReq mshr miss latency ((Tick/Count))
system.cpu.dcache.ReadReq.avgMshrMissLatency::total 53933.935945                       # average ReadReq mshr miss latency ((Tick/Count))
system.cpu.dcache.StoreCondReq.hits::cpu.data            9                       # number of StoreCondReq hits (Count)
system.cpu.dcache.StoreCondReq.hits::total            9                       # number of StoreCondReq hits (Count)
system.cpu.dcache.StoreCondReq.accesses::cpu.data            9                       # number of StoreCondReq accesses(hits+misses) (Count)
system.cpu.dcache.StoreCondReq.accesses::total            9                       # number of StoreCondReq accesses(hits+misses) (Count)
system.cpu.dcache.SwapReq.hits::cpu.data           16                       # number of SwapReq hits (Count)
system.cpu.dcache.SwapReq.hits::total              16                       # number of SwapReq hits (Count)
system.cpu.dcache.SwapReq.misses::cpu.data            1                       # number of SwapReq misses (Count)
system.cpu.dcache.SwapReq.misses::total             1                       # number of SwapReq misses (Count)
system.cpu.dcache.SwapReq.missLatency::cpu.data        55999                       # number of SwapReq miss ticks (Tick)
system.cpu.dcache.SwapReq.missLatency::total        55999                       # number of SwapReq miss ticks (Tick)
system.cpu.dcache.SwapReq.accesses::cpu.data           17                       # number of SwapReq accesses(hits+misses) (Count)
system.cpu.dcache.SwapReq.accesses::total           17                       # number of SwapReq accesses(hits+misses) (Count)
system.cpu.dcache.SwapReq.missRate::cpu.data     0.058824                       # miss rate for SwapReq accesses (Ratio)
system.cpu.dcache.SwapReq.missRate::total     0.058824                       # miss rate for SwapReq accesses (Ratio)
system.cpu.dcache.SwapReq.avgMissLatency::cpu.data        55999                       # average SwapReq miss latency ((Tick/Count))
system.cpu.dcache.SwapReq.avgMissLatency::total        55999                       # average SwapReq miss latency ((Tick/Count))
system.cpu.dcache.SwapReq.mshrMisses::cpu.data            1                       # number of SwapReq MSHR misses (Count)
system.cpu.dcache.SwapReq.mshrMisses::total            1                       # number of SwapReq MSHR misses (Count)
system.cpu.dcache.SwapReq.mshrMissLatency::cpu.data        54999                       # number of SwapReq MSHR miss ticks (Tick)
system.cpu.dcache.SwapReq.mshrMissLatency::total        54999                       # number of SwapReq MSHR miss ticks (Tick)
system.cpu.dcache.SwapReq.mshrMissRate::cpu.data     0.058824                       # mshr miss rate for SwapReq accesses (Ratio)
system.cpu.dcache.SwapReq.mshrMissRate::total     0.058824                       # mshr miss rate for SwapReq accesses (Ratio)
system.cpu.dcache.SwapReq.avgMshrMissLatency::cpu.data        54999                       # average SwapReq mshr miss latency ((Tick/Count))
system.cpu.dcache.SwapReq.avgMshrMissLatency::total        54999                       # average SwapReq mshr miss latency ((Tick/Count))
system.cpu.dcache.WriteReq.hits::cpu.data      5281106                       # number of WriteReq hits (Count)
system.cpu.dcache.WriteReq.hits::total        5281106                       # number of WriteReq hits (Count)
system.cpu.dcache.WriteReq.misses::cpu.data        27862                       # number of WriteReq misses (Count)
system.cpu.dcache.WriteReq.misses::total        27862                       # number of WriteReq misses (Count)
system.cpu.dcache.WriteReq.missLatency::cpu.data   1288713571                       # number of WriteReq miss ticks (Tick)
system.cpu.dcache.WriteReq.missLatency::total   1288713571                       # number of WriteReq miss ticks (Tick)
system.cpu.dcache.WriteReq.accesses::cpu.data      5308968                       # number of WriteReq accesses(hits+misses) (Count)
system.cpu.dcache.WriteReq.accesses::total      5308968                       # number of WriteReq accesses(hits+misses) (Count)
system.cpu.dcache.WriteReq.missRate::cpu.data     0.005248                       # miss rate for WriteReq accesses (Ratio)
system.cpu.dcache.WriteReq.missRate::total     0.005248                       # miss rate for WriteReq accesses (Ratio)
system.cpu.dcache.WriteReq.avgMissLatency::cpu.data 46253.448101                       # average WriteReq miss latency ((Tick/Count))
system.cpu.dcache.WriteReq.avgMissLatency::total 46253.448101                       # average WriteReq miss latency ((Tick/Count))
system.cpu.dcache.WriteReq.mshrHits::cpu.data        18387                       # number of WriteReq MSHR hits (Count)
system.cpu.dcache.WriteReq.mshrHits::total        18387                       # number of WriteReq MSHR hits (Count)
system.cpu.dcache.WriteReq.mshrMisses::cpu.data         9475                       # number of WriteReq MSHR misses (Count)
system.cpu.dcache.WriteReq.mshrMisses::total         9475                       # number of WriteReq MSHR misses (Count)
system.cpu.dcache.WriteReq.mshrMissLatency::cpu.data    373082509                       # number of WriteReq MSHR miss ticks (Tick)
system.cpu.dcache.WriteReq.mshrMissLatency::total    373082509                       # number of WriteReq MSHR miss ticks (Tick)
system.cpu.dcache.WriteReq.mshrMissRate::cpu.data     0.001785                       # mshr miss rate for WriteReq accesses (Ratio)
system.cpu.dcache.WriteReq.mshrMissRate::total     0.001785                       # mshr miss rate for WriteReq accesses (Ratio)
system.cpu.dcache.WriteReq.avgMshrMissLatency::cpu.data 39375.462691                       # average WriteReq mshr miss latency ((Tick/Count))
system.cpu.dcache.WriteReq.avgMshrMissLatency::total 39375.462691                       # average WriteReq mshr miss latency ((Tick/Count))
system.cpu.dcache.power_state.pwrStateResidencyTicks::UNDEFINED  27866685000                       # Cumulative time (in ticks) in various power states (Tick)
system.cpu.dcache.tags.tagsInUse           127.978285                       # Average ticks per tags in use ((Tick/Count))
system.cpu.dcache.tags.totalRefs             12836151                       # Total number of references to valid blocks. (Count)
system.cpu.dcache.tags.sampledRefs             333511                       # Sample count of references to valid blocks. (Count)
system.cpu.dcache.tags.avgRefs              38.487939                       # Average number of references to valid blocks. ((Count/Count))
system.cpu.dcache.tags.warmupTick              202000                       # The tick when the warmup percentage was hit. (Tick)
system.cpu.dcache.tags.occupancies::cpu.data   127.978285                       # Average occupied blocks per tick, per requestor ((Count/Tick))
system.cpu.dcache.tags.avgOccs::cpu.data     0.999830                       # Average percentage of cache occupancy ((Ratio/Tick))
system.cpu.dcache.tags.avgOccs::total        0.999830                       # Average percentage of cache occupancy ((Ratio/Tick))
system.cpu.dcache.tags.occupanciesTaskId::1024          128                       # Occupied blocks per task id (Count)
system.cpu.dcache.tags.ageTaskId_1024::0           81                       # Occupied blocks per task id, per block age (Count)
system.cpu.dcache.tags.ageTaskId_1024::1           47                       # Occupied blocks per task id, per block age (Count)
system.cpu.dcache.tags.ratioOccsTaskId::1024            1                       # Ratio of occupied blocks and all blocks, per task id (Ratio)
system.cpu.dcache.tags.tagAccesses           26217025                       # Number of tag accesses (Count)
system.cpu.dcache.tags.dataAccesses          26217025                       # Number of data accesses (Count)
system.cpu.dcache.tags.power_state.pwrStateResidencyTicks::UNDEFINED  27866685000                       # Cumulative time (in ticks) in various power states (Tick)
system.cpu.decode.idleCycles                  6236961                       # Number of cycles decode is idle (Cycle)
system.cpu.decode.blockedCycles              38278597                       # Number of cycles decode is blocked (Cycle)
system.cpu.decode.runCycles                   8458622                       # Number of cycles decode is running (Cycle)
system.cpu.decode.unblockCycles               1549113                       # Number of cycles decode is unblocking (Cycle)
system.cpu.decode.squashCycles                 199283                       # Number of cycles decode is squashing (Cycle)
system.cpu.decode.branchResolved              5692947                       # Number of times decode resolved a branch (Count)
system.cpu.decode.branchMispred                 12434                       # Number of times decode detected a branch misprediction (Count)
system.cpu.decode.decodedInsts               55223723                       # Number of instructions handled by decode (Count)
system.cpu.decode.squashedInsts                 46350                       # Number of squashed instructions handled by decode (Count)
system.cpu.dtb_walker_cache.blockedCycles::no_mshrs            0                       # number of cycles access was blocked (Cycle)
system.cpu.dtb_walker_cache.blockedCycles::no_targets            0                       # number of cycles access was blocked (Cycle)
system.cpu.dtb_walker_cache.blockedCauses::no_mshrs            0                       # number of times access was blocked (Count)
system.cpu.dtb_walker_cache.blockedCauses::no_targets            0                       # number of times access was blocked (Count)
system.cpu.dtb_walker_cache.avgBlocked::no_mshrs          nan                       # average number of cycles each access was blocked ((Cycle/Count))
system.cpu.dtb_walker_cache.avgBlocked::no_targets          nan                       # average number of cycles each access was blocked ((Cycle/Count))
system.cpu.dtb_walker_cache.replacements            0                       # number of replacements (Count)
system.cpu.dtb_walker_cache.power_state.pwrStateResidencyTicks::UNDEFINED  27866685000                       # Cumulative time (in ticks) in various power states (Tick)
system.cpu.dtb_walker_cache.tags.tagsInUse            0                       # Average ticks per tags in use ((Tick/Count))
system.cpu.dtb_walker_cache.tags.totalRefs            0                       # Total number of references to valid blocks. (Count)
system.cpu.dtb_walker_cache.tags.sampledRefs            0                       # Sample count of references to valid blocks. (Count)
system.cpu.dtb_walker_cache.tags.avgRefs          nan                       # Average number of references to valid blocks. ((Count/Count))
system.cpu.dtb_walker_cache.tags.warmupTick            0                       # The tick when the warmup percentage was hit. (Tick)
system.cpu.dtb_walker_cache.tags.tagAccesses            0                       # Number of tag accesses (Count)
system.cpu.dtb_walker_cache.tags.dataAccesses            0                       # Number of data accesses (Count)
system.cpu.dtb_walker_cache.tags.power_state.pwrStateResidencyTicks::UNDEFINED  27866685000                       # Cumulative time (in ticks) in various power states (Tick)
system.cpu.fetch.icacheStallCycles            7874021                       # Number of cycles fetch is stalled on an Icache miss (Cycle)
system.cpu.fetch.insts                       57615013                       # Number of instructions fetch has processed (Count)
system.cpu.fetch.branches                    10444888                       # Number of branches that fetch encountered (Count)
system.cpu.fetch.predictedBranches            6529911                       # Number of branches that fetch has predicted taken (Count)
system.cpu.fetch.cycles                      46636469                       # Number of cycles fetch has run and was not squashing or blocked (Cycle)
system.cpu.fetch.squashCycles                  423396                       # Number of cycles fetch has spent squashing (Cycle)
system.cpu.fetch.miscStallCycles                  259                       # Number of cycles fetch has spent waiting on interrupts, or bad addresses, or out of MSHRs (Cycle)
system.cpu.fetch.icacheWaitRetryStallCycles          129                       # Number of stall cycles due to full MSHR (Cycle)
system.cpu.fetch.cacheLines                   6250062                       # Number of cache lines fetched (Count)
system.cpu.fetch.icacheSquashes                 83113                       # Number of outstanding Icache misses that were squashed (Count)
system.cpu.fetch.nisnDist::samples           54722576                       # Number of instructions fetched each cycle (Total) (Count)
system.cpu.fetch.nisnDist::mean              1.052858                       # Number of instructions fetched each cycle (Total) (Count)
system.cpu.fetch.nisnDist::stdev             2.334142                       # Number of instructions fetched each cycle (Total) (Count)
system.cpu.fetch.nisnDist::underflows               0      0.00%      0.00% # Number of instructions fetched each cycle (Total) (Count)
system.cpu.fetch.nisnDist::0                 43083398     78.73%     78.73% # Number of instructions fetched each cycle (Total) (Count)
system.cpu.fetch.nisnDist::1                  1059219      1.94%     80.67% # Number of instructions fetched each cycle (Total) (Count)
system.cpu.fetch.nisnDist::2                  1756437      3.21%     83.88% # Number of instructions fetched each cycle (Total) (Count)
system.cpu.fetch.nisnDist::3                  1148650      2.10%     85.97% # Number of instructions fetched each cycle (Total) (Count)
system.cpu.fetch.nisnDist::4                  1554751      2.84%     88.82% # Number of instructions fetched each cycle (Total) (Count)
system.cpu.fetch.nisnDist::5                   995248      1.82%     90.63% # Number of instructions fetched each cycle (Total) (Count)
system.cpu.fetch.nisnDist::6                   793437      1.45%     92.08% # Number of instructions fetched each cycle (Total) (Count)
system.cpu.fetch.nisnDist::7                  1010305      1.85%     93.93% # Number of instructions fetched each cycle (Total) (Count)
system.cpu.fetch.nisnDist::8                  3321131      6.07%    100.00% # Number of instructions fetched each cycle (Total) (Count)
system.cpu.fetch.nisnDist::overflows                0      0.00%    100.00% # Number of instructions fetched each cycle (Total) (Count)
system.cpu.fetch.nisnDist::min_value                0                       # Number of instructions fetched each cycle (Total) (Count)
system.cpu.fetch.nisnDist::max_value                8                       # Number of instructions fetched each cycle (Total) (Count)
system.cpu.fetch.nisnDist::total             54722576                       # Number of instructions fetched each cycle (Total) (Count)
system.cpu.fetch.branchRate                  0.187408                       # Number of branch fetches per cycle (Ratio)
system.cpu.fetch.rate                        1.033761                       # Number of inst fetches per cycle ((Count/Cycle))
system.cpu.icache.demandHits::cpu.inst        6189424                       # number of demand (read+write) hits (Count)
system.cpu.icache.demandHits::total           6189424                       # number of demand (read+write) hits (Count)
system.cpu.icache.overallHits::cpu.inst       6189424                       # number of overall hits (Count)
system.cpu.icache.overallHits::total          6189424                       # number of overall hits (Count)
system.cpu.icache.demandMisses::cpu.inst        60635                       # number of demand (read+write) misses (Count)
system.cpu.icache.demandMisses::total           60635                       # number of demand (read+write) misses (Count)
system.cpu.icache.overallMisses::cpu.inst        60635                       # number of overall misses (Count)
system.cpu.icache.overallMisses::total          60635                       # number of overall misses (Count)
system.cpu.icache.demandMissLatency::cpu.inst   1427242497                       # number of demand (read+write) miss ticks (Tick)
system.cpu.icache.demandMissLatency::total   1427242497                       # number of demand (read+write) miss ticks (Tick)
system.cpu.icache.overallMissLatency::cpu.inst   1427242497                       # number of overall miss ticks (Tick)
system.cpu.icache.overallMissLatency::total   1427242497                       # number of overall miss ticks (Tick)
system.cpu.icache.demandAccesses::cpu.inst      6250059                       # number of demand (read+write) accesses (Count)
system.cpu.icache.demandAccesses::total       6250059                       # number of demand (read+write) accesses (Count)
system.cpu.icache.overallAccesses::cpu.inst      6250059                       # number of overall (read+write) accesses (Count)
system.cpu.icache.overallAccesses::total      6250059                       # number of overall (read+write) accesses (Count)
system.cpu.icache.demandMissRate::cpu.inst     0.009702                       # miss rate for demand accesses (Ratio)
system.cpu.icache.demandMissRate::total      0.009702                       # miss rate for demand accesses (Ratio)
system.cpu.icache.overallMissRate::cpu.inst     0.009702                       # miss rate for overall accesses (Ratio)
system.cpu.icache.overallMissRate::total     0.009702                       # miss rate for overall accesses (Ratio)
system.cpu.icache.demandAvgMissLatency::cpu.inst 23538.261681                       # average overall miss latency ((Cycle/Count))
system.cpu.icache.demandAvgMissLatency::total 23538.261681                       # average overall miss latency ((Cycle/Count))
system.cpu.icache.overallAvgMissLatency::cpu.inst 23538.261681                       # average overall miss latency ((Cycle/Count))
system.cpu.icache.overallAvgMissLatency::total 23538.261681                       # average overall miss latency ((Cycle/Count))
system.cpu.icache.blockedCycles::no_mshrs         1845                       # number of cycles access was blocked (Cycle)
system.cpu.icache.blockedCycles::no_targets            0                       # number of cycles access was blocked (Cycle)
system.cpu.icache.blockedCauses::no_mshrs           30                       # number of times access was blocked (Count)
system.cpu.icache.blockedCauses::no_targets            0                       # number of times access was blocked (Count)
system.cpu.icache.avgBlocked::no_mshrs      61.500000                       # average number of cycles each access was blocked ((Cycle/Count))
system.cpu.icache.avgBlocked::no_targets          nan                       # average number of cycles each access was blocked ((Cycle/Count))
system.cpu.icache.writebacks::writebacks        57737                       # number of writebacks (Count)
system.cpu.icache.writebacks::total             57737                       # number of writebacks (Count)
system.cpu.icache.demandMshrHits::cpu.inst         2451                       # number of demand (read+write) MSHR hits (Count)
system.cpu.icache.demandMshrHits::total          2451                       # number of demand (read+write) MSHR hits (Count)
system.cpu.icache.overallMshrHits::cpu.inst         2451                       # number of overall MSHR hits (Count)
system.cpu.icache.overallMshrHits::total         2451                       # number of overall MSHR hits (Count)
system.cpu.icache.demandMshrMisses::cpu.inst        58184                       # number of demand (read+write) MSHR misses (Count)
system.cpu.icache.demandMshrMisses::total        58184                       # number of demand (read+write) MSHR misses (Count)
system.cpu.icache.overallMshrMisses::cpu.inst        58184                       # number of overall MSHR misses (Count)
system.cpu.icache.overallMshrMisses::total        58184                       # number of overall MSHR misses (Count)
system.cpu.icache.demandMshrMissLatency::cpu.inst   1326304998                       # number of demand (read+write) MSHR miss ticks (Tick)
system.cpu.icache.demandMshrMissLatency::total   1326304998                       # number of demand (read+write) MSHR miss ticks (Tick)
system.cpu.icache.overallMshrMissLatency::cpu.inst   1326304998                       # number of overall MSHR miss ticks (Tick)
system.cpu.icache.overallMshrMissLatency::total   1326304998                       # number of overall MSHR miss ticks (Tick)
system.cpu.icache.demandMshrMissRate::cpu.inst     0.009309                       # mshr miss ratio for demand accesses (Ratio)
system.cpu.icache.demandMshrMissRate::total     0.009309                       # mshr miss ratio for demand accesses (Ratio)
system.cpu.icache.overallMshrMissRate::cpu.inst     0.009309                       # mshr miss ratio for overall accesses (Ratio)
system.cpu.icache.overallMshrMissRate::total     0.009309                       # mshr miss ratio for overall accesses (Ratio)
system.cpu.icache.demandAvgMshrMissLatency::cpu.inst 22795.012340                       # average overall mshr miss latency ((Cycle/Count))
system.cpu.icache.demandAvgMshrMissLatency::total 22795.012340                       # average overall mshr miss latency ((Cycle/Count))
system.cpu.icache.overallAvgMshrMissLatency::cpu.inst 22795.012340                       # average overall mshr miss latency ((Cycle/Count))
system.cpu.icache.overallAvgMshrMissLatency::total 22795.012340                       # average overall mshr miss latency ((Cycle/Count))
system.cpu.icache.replacements                  57737                       # number of replacements (Count)
system.cpu.icache.ReadReq.hits::cpu.inst      6189424                       # number of ReadReq hits (Count)
system.cpu.icache.ReadReq.hits::total         6189424                       # number of ReadReq hits (Count)
system.cpu.icache.ReadReq.misses::cpu.inst        60635                       # number of ReadReq misses (Count)
system.cpu.icache.ReadReq.misses::total         60635                       # number of ReadReq misses (Count)
system.cpu.icache.ReadReq.missLatency::cpu.inst   1427242497                       # number of ReadReq miss ticks (Tick)
system.cpu.icache.ReadReq.missLatency::total   1427242497                       # number of ReadReq miss ticks (Tick)
system.cpu.icache.ReadReq.accesses::cpu.inst      6250059                       # number of ReadReq accesses(hits+misses) (Count)
system.cpu.icache.ReadReq.accesses::total      6250059                       # number of ReadReq accesses(hits+misses) (Count)
system.cpu.icache.ReadReq.missRate::cpu.inst     0.009702                       # miss rate for ReadReq accesses (Ratio)
system.cpu.icache.ReadReq.missRate::total     0.009702                       # miss rate for ReadReq accesses (Ratio)
system.cpu.icache.ReadReq.avgMissLatency::cpu.inst 23538.261681                       # average ReadReq miss latency ((Tick/Count))
system.cpu.icache.ReadReq.avgMissLatency::total 23538.261681                       # average ReadReq miss latency ((Tick/Count))
system.cpu.icache.ReadReq.mshrHits::cpu.inst         2451                       # number of ReadReq MSHR hits (Count)
system.cpu.icache.ReadReq.mshrHits::total         2451                       # number of ReadReq MSHR hits (Count)
system.cpu.icache.ReadReq.mshrMisses::cpu.inst        58184                       # number of ReadReq MSHR misses (Count)
system.cpu.icache.ReadReq.mshrMisses::total        58184                       # number of ReadReq MSHR misses (Count)
system.cpu.icache.ReadReq.mshrMissLatency::cpu.inst   1326304998                       # number of ReadReq MSHR miss ticks (Tick)
system.cpu.icache.ReadReq.mshrMissLatency::total   1326304998                       # number of ReadReq MSHR miss ticks (Tick)
system.cpu.icache.ReadReq.mshrMissRate::cpu.inst     0.009309                       # mshr miss rate for ReadReq accesses (Ratio)
system.cpu.icache.ReadReq.mshrMissRate::total     0.009309                       # mshr miss rate for ReadReq accesses (Ratio)
system.cpu.icache.ReadReq.avgMshrMissLatency::cpu.inst 22795.012340                       # average ReadReq mshr miss latency ((Tick/Count))
system.cpu.icache.ReadReq.avgMshrMissLatency::total 22795.012340                       # average ReadReq mshr miss latency ((Tick/Count))
system.cpu.icache.power_state.pwrStateResidencyTicks::UNDEFINED  27866685000                       # Cumulative time (in ticks) in various power states (Tick)
system.cpu.icache.tags.tagsInUse           365.366385                       # Average ticks per tags in use ((Tick/Count))
system.cpu.icache.tags.totalRefs              6247606                       # Total number of references to valid blocks. (Count)
system.cpu.icache.tags.sampledRefs              58182                       # Sample count of references to valid blocks. (Count)
system.cpu.icache.tags.avgRefs             107.380393                       # Average number of references to valid blocks. ((Count/Count))
system.cpu.icache.tags.warmupTick               77000                       # The tick when the warmup percentage was hit. (Tick)
system.cpu.icache.tags.occupancies::cpu.inst   365.366385                       # Average occupied blocks per tick, per requestor ((Count/Tick))
system.cpu.icache.tags.avgOccs::cpu.inst     0.713606                       # Average percentage of cache occupancy ((Ratio/Tick))
system.cpu.icache.tags.avgOccs::total        0.713606                       # Average percentage of cache occupancy ((Ratio/Tick))
system.cpu.icache.tags.occupanciesTaskId::1024          445                       # Occupied blocks per task id (Count)
system.cpu.icache.tags.ageTaskId_1024::0          105                       # Occupied blocks per task id, per block age (Count)
system.cpu.icache.tags.ageTaskId_1024::1           23                       # Occupied blocks per task id, per block age (Count)
system.cpu.icache.tags.ageTaskId_1024::3          145                       # Occupied blocks per task id, per block age (Count)
system.cpu.icache.tags.ageTaskId_1024::4          172                       # Occupied blocks per task id, per block age (Count)
system.cpu.icache.tags.ratioOccsTaskId::1024     0.869141                       # Ratio of occupied blocks and all blocks, per task id (Ratio)
system.cpu.icache.tags.tagAccesses           12558300                       # Number of tag accesses (Count)
system.cpu.icache.tags.dataAccesses          12558300                       # Number of data accesses (Count)
system.cpu.icache.tags.power_state.pwrStateResidencyTicks::UNDEFINED  27866685000                       # Cumulative time (in ticks) in various power states (Tick)
system.cpu.iew.idleCycles                           0                       # Number of cycles IEW is idle (Cycle)
system.cpu.iew.squashCycles                    199283                       # Number of cycles IEW is squashing (Cycle)
system.cpu.iew.blockCycles                     709632                       # Number of cycles IEW is blocking (Cycle)
system.cpu.iew.unblockCycles                 26705383                       # Number of cycles IEW is unblocking (Cycle)
system.cpu.iew.dispatchedInsts               53293130                       # Number of instructions dispatched to IQ (Count)
system.cpu.iew.dispSquashedInsts               152022                       # Number of squashed instructions skipped by dispatch (Count)
system.cpu.iew.dispLoadInsts                 11842025                       # Number of dispatched load instructions (Count)
system.cpu.iew.dispStoreInsts                 5755489                       # Number of dispatched store instructions (Count)
system.cpu.iew.dispNonSpecInsts                 33416                       # Number of dispatched non-speculative instructions (Count)
system.cpu.iew.iqFullEvents                    179776                       # Number of times the IQ has become full, causing a stall (Count)
system.cpu.iew.lsqFullEvents                 26523895                       # Number of times the LSQ has become full, causing a stall (Count)
system.cpu.iew.memOrderViolationEvents          21334                       # Number of memory order violations (Count)
system.cpu.iew.predictedTakenIncorrect          85993                       # Number of branches that were predicted taken incorrectly (Count)
system.cpu.iew.predictedNotTakenIncorrect       111587                       # Number of branches that were predicted not taken incorrectly (Count)
system.cpu.iew.branchMispredicts               197580                       # Number of branch mispredicts detected at execute (Count)
system.cpu.iew.instsToCommit                 51749944                       # Cumulative count of insts sent to commit (Count)
system.cpu.iew.writebackCount                51668019                       # Cumulative count of insts written-back (Count)
system.cpu.iew.producerInst                  28615148                       # Number of instructions producing a value (Count)
[...]
system.mem_ctrls.dram.bwRead::total         898731658                       # Total read bandwidth from this memory ((Byte/Second))
system.mem_ctrls.dram.bwInstRead::cpu.inst    133623644                       # Instruction read bandwidth from this memory ((Byte/Second))
system.mem_ctrls.dram.bwInstRead::total     133623644                       # Instruction read bandwidth from this memory ((Byte/Second))
system.mem_ctrls.dram.bwWrite::writebacks     50978722                       # Write bandwidth from this memory ((Byte/Second))
system.mem_ctrls.dram.bwWrite::total         50978722                       # Write bandwidth from this memory ((Byte/Second))
system.mem_ctrls.dram.bwTotal::writebacks     50978722                       # Total bandwidth to/from this memory ((Byte/Second))
system.mem_ctrls.dram.bwTotal::cpu.inst     133623644                       # Total bandwidth to/from this memory ((Byte/Second))
system.mem_ctrls.dram.bwTotal::cpu.data     765108013                       # Total bandwidth to/from this memory ((Byte/Second))
system.mem_ctrls.dram.bwTotal::total        949710380                       # Total bandwidth to/from this memory ((Byte/Second))
system.mem_ctrls.dram.readBursts               319062                       # Number of DRAM read bursts (Count)
system.mem_ctrls.dram.writeBursts                8352                       # Number of DRAM write bursts (Count)
system.mem_ctrls.dram.perBankRdBursts::0         1082                       # Per bank write bursts (Count)
system.mem_ctrls.dram.perBankRdBursts::1         1185                       # Per bank write bursts (Count)
system.mem_ctrls.dram.perBankRdBursts::2        10123                       # Per bank write bursts (Count)
system.mem_ctrls.dram.perBankRdBursts::3         9446                       # Per bank write bursts (Count)
system.mem_ctrls.dram.perBankRdBursts::4         5064                       # Per bank write bursts (Count)
system.mem_ctrls.dram.perBankRdBursts::5        13704                       # Per bank write bursts (Count)
system.mem_ctrls.dram.perBankRdBursts::6          879                       # Per bank write bursts (Count)
system.mem_ctrls.dram.perBankRdBursts::7         2055                       # Per bank write bursts (Count)
system.mem_ctrls.dram.perBankRdBursts::8         2035                       # Per bank write bursts (Count)
system.mem_ctrls.dram.perBankRdBursts::9         2026                       # Per bank write bursts (Count)
system.mem_ctrls.dram.perBankRdBursts::10         4810                       # Per bank write bursts (Count)
system.mem_ctrls.dram.perBankRdBursts::11        66225                       # Per bank write bursts (Count)
system.mem_ctrls.dram.perBankRdBursts::12        66077                       # Per bank write bursts (Count)
system.mem_ctrls.dram.perBankRdBursts::13        66083                       # Per bank write bursts (Count)
system.mem_ctrls.dram.perBankRdBursts::14        63075                       # Per bank write bursts (Count)
system.mem_ctrls.dram.perBankRdBursts::15         5193                       # Per bank write bursts (Count)
system.mem_ctrls.dram.perBankWrBursts::0          515                       # Per bank write bursts (Count)
system.mem_ctrls.dram.perBankWrBursts::1          559                       # Per bank write bursts (Count)
system.mem_ctrls.dram.perBankWrBursts::2          478                       # Per bank write bursts (Count)
system.mem_ctrls.dram.perBankWrBursts::3          535                       # Per bank write bursts (Count)
system.mem_ctrls.dram.perBankWrBursts::4          384                       # Per bank write bursts (Count)
system.mem_ctrls.dram.perBankWrBursts::5          588                       # Per bank write bursts (Count)
system.mem_ctrls.dram.perBankWrBursts::6          409                       # Per bank write bursts (Count)
system.mem_ctrls.dram.perBankWrBursts::7          557                       # Per bank write bursts (Count)
system.mem_ctrls.dram.perBankWrBursts::8          531                       # Per bank write bursts (Count)
system.mem_ctrls.dram.perBankWrBursts::9          521                       # Per bank write bursts (Count)
system.mem_ctrls.dram.perBankWrBursts::10          541                       # Per bank write bursts (Count)
system.mem_ctrls.dram.perBankWrBursts::11          535                       # Per bank write bursts (Count)
system.mem_ctrls.dram.perBankWrBursts::12          541                       # Per bank write bursts (Count)
system.mem_ctrls.dram.perBankWrBursts::13          558                       # Per bank write bursts (Count)
system.mem_ctrls.dram.perBankWrBursts::14          533                       # Per bank write bursts (Count)
system.mem_ctrls.dram.perBankWrBursts::15          567                       # Per bank write bursts (Count)
system.mem_ctrls.dram.totQLat              1446460000                       # Total ticks spent queuing (Tick)
system.mem_ctrls.dram.totBusLat            1595310000                       # Total ticks spent in databus transfers (Tick)
system.mem_ctrls.dram.totMemAccLat         7428872500                       # Total ticks spent from burst creation until serviced by the DRAM (Tick)
system.mem_ctrls.dram.avgQLat                 4533.48                       # Average queueing delay per DRAM burst ((Tick/Count))
system.mem_ctrls.dram.avgBusLat               5000.00                       # Average bus latency per DRAM burst ((Tick/Count))
system.mem_ctrls.dram.avgMemAccLat           23283.48                       # Average memory access latency per DRAM burst ((Tick/Count))
system.mem_ctrls.dram.readRowHits              280763                       # Number of row buffer hits during reads (Count)
system.mem_ctrls.dram.writeRowHits               7588                       # Number of row buffer hits during writes (Count)
system.mem_ctrls.dram.readRowHitRate            88.00                       # Row buffer hit rate for reads (Ratio)
system.mem_ctrls.dram.writeRowHitRate           90.85                       # Row buffer hit rate for writes (Ratio)
system.mem_ctrls.dram.bytesPerActivate::samples        39050                       # Bytes accessed per row activation (Byte)
system.mem_ctrls.dram.bytesPerActivate::mean   536.482254                       # Bytes accessed per row activation (Byte)
system.mem_ctrls.dram.bytesPerActivate::gmean   310.845334                       # Bytes accessed per row activation (Byte)
system.mem_ctrls.dram.bytesPerActivate::stdev   426.405570                       # Bytes accessed per row activation (Byte)
system.mem_ctrls.dram.bytesPerActivate::0-127        11393     29.18%     29.18% # Bytes accessed per row activation (Byte)
system.mem_ctrls.dram.bytesPerActivate::128-255         3976     10.18%     39.36% # Bytes accessed per row activation (Byte)
system.mem_ctrls.dram.bytesPerActivate::256-383         4099     10.50%     49.85% # Bytes accessed per row activation (Byte)
system.mem_ctrls.dram.bytesPerActivate::384-511          561      1.44%     51.29% # Bytes accessed per row activation (Byte)
system.mem_ctrls.dram.bytesPerActivate::512-639          840      2.15%     53.44% # Bytes accessed per row activation (Byte)
system.mem_ctrls.dram.bytesPerActivate::640-767         1609      4.12%     57.56% # Bytes accessed per row activation (Byte)
system.mem_ctrls.dram.bytesPerActivate::768-895          724      1.85%     59.42% # Bytes accessed per row activation (Byte)
system.mem_ctrls.dram.bytesPerActivate::896-1023         1594      4.08%     63.50% # Bytes accessed per row activation (Byte)
system.mem_ctrls.dram.bytesPerActivate::1024-1151        14254     36.50%    100.00% # Bytes accessed per row activation (Byte)
system.mem_ctrls.dram.bytesPerActivate::total        39050                       # Bytes accessed per row activation (Byte)
system.mem_ctrls.dram.bytesRead              20419968                       # Total bytes read (Byte)
system.mem_ctrls.dram.bytesWritten             534528                       # Total bytes written (Byte)
system.mem_ctrls.dram.avgRdBW              732.773489                       # Average DRAM read bandwidth in MiBytes/s ((Byte/Second))
system.mem_ctrls.dram.avgWrBW               19.181614                       # Average DRAM write bandwidth in MiBytes/s ((Byte/Second))
system.mem_ctrls.dram.peakBW                 12800.00                       # Theoretical peak bandwidth in MiByte/s ((Byte/Second))
system.mem_ctrls.dram.busUtil                    5.87                       # Data bus utilization in percentage (Ratio)
system.mem_ctrls.dram.busUtilRead                5.72                       # Data bus utilization in percentage for reads (Ratio)
system.mem_ctrls.dram.busUtilWrite               0.15                       # Data bus utilization in percentage for writes (Ratio)
system.mem_ctrls.dram.pageHitRate               88.07                       # Row buffer hit rate, read and write combined (Ratio)
system.mem_ctrls.dram.power_state.pwrStateResidencyTicks::UNDEFINED  27866685000                       # Cumulative time (in ticks) in various power states (Tick)
system.mem_ctrls.dram.rank0.actEnergy       116467680                       # Energy for activate commands per rank (pJ) (Joule)
system.mem_ctrls.dram.rank0.preEnergy        61877475                       # Energy for precharge commands per rank (pJ) (Joule)
system.mem_ctrls.dram.rank0.readEnergy      310861320                       # Energy for read commands per rank (pJ) (Joule)
system.mem_ctrls.dram.rank0.writeEnergy      21010500                       # Energy for write commands per rank (pJ) (Joule)
system.mem_ctrls.dram.rank0.refreshEnergy 2199181920.000000                       # Energy for refresh commands per rank (pJ) (Joule)
system.mem_ctrls.dram.rank0.actBackEnergy   7052485170                       # Energy for active background per rank (pJ) (Joule)
system.mem_ctrls.dram.rank0.preBackEnergy   4761872160                       # Energy for precharge background per rank (pJ) (Joule)
system.mem_ctrls.dram.rank0.actPowerDownEnergy            0                       # Energy for active power-down per rank (pJ) (Joule)
system.mem_ctrls.dram.rank0.prePowerDownEnergy            0                       # Energy for precharge power-down per rank (pJ) (Joule)
system.mem_ctrls.dram.rank0.selfRefreshEnergy            0                       # Energy for self refresh per rank (pJ) (Joule)
system.mem_ctrls.dram.rank0.totalEnergy   14523756225                       # Total energy per rank (pJ) (Joule)
system.mem_ctrls.dram.rank0.averagePower   521.187081                       # Core power per rank (mW) (Watt)
system.mem_ctrls.dram.rank0.totalIdleTime            0                       # Total Idle time Per DRAM Rank (Tick)
system.mem_ctrls.dram.rank0.pwrStateTime::IDLE  12314619000                       # Time in different power states (Tick)
system.mem_ctrls.dram.rank0.pwrStateTime::REF    930280000                       # Time in different power states (Tick)
system.mem_ctrls.dram.rank0.pwrStateTime::SREF            0                       # Time in different power states (Tick)
system.mem_ctrls.dram.rank0.pwrStateTime::PRE_PDN            0                       # Time in different power states (Tick)
system.mem_ctrls.dram.rank0.pwrStateTime::ACT  14621786000                       # Time in different power states (Tick)
system.mem_ctrls.dram.rank0.pwrStateTime::ACT_PDN            0                       # Time in different power states (Tick)
system.mem_ctrls.dram.rank1.actEnergy       162442140                       # Energy for activate commands per rank (pJ) (Joule)
system.mem_ctrls.dram.rank1.preEnergy        86317275                       # Energy for precharge commands per rank (pJ) (Joule)
system.mem_ctrls.dram.rank1.readEnergy     1967241360                       # Energy for read commands per rank (pJ) (Joule)
system.mem_ctrls.dram.rank1.writeEnergy      22586940                       # Energy for write commands per rank (pJ) (Joule)
system.mem_ctrls.dram.rank1.refreshEnergy 2199181920.000000                       # Energy for refresh commands per rank (pJ) (Joule)
system.mem_ctrls.dram.rank1.actBackEnergy  11899932750                       # Energy for active background per rank (pJ) (Joule)
system.mem_ctrls.dram.rank1.preBackEnergy    679811040                       # Energy for precharge background per rank (pJ) (Joule)
system.mem_ctrls.dram.rank1.actPowerDownEnergy            0                       # Energy for active power-down per rank (pJ) (Joule)
system.mem_ctrls.dram.rank1.prePowerDownEnergy            0                       # Energy for precharge power-down per rank (pJ) (Joule)
system.mem_ctrls.dram.rank1.selfRefreshEnergy            0                       # Energy for self refresh per rank (pJ) (Joule)
system.mem_ctrls.dram.rank1.totalEnergy   17017513425                       # Total energy per rank (pJ) (Joule)
system.mem_ctrls.dram.rank1.averagePower   610.675917                       # Core power per rank (mW) (Watt)
system.mem_ctrls.dram.rank1.totalIdleTime            0                       # Total Idle time Per DRAM Rank (Tick)
system.mem_ctrls.dram.rank1.pwrStateTime::IDLE   1657774250                       # Time in different power states (Tick)
system.mem_ctrls.dram.rank1.pwrStateTime::REF    930280000                       # Time in different power states (Tick)
system.mem_ctrls.dram.rank1.pwrStateTime::SREF            0                       # Time in different power states (Tick)
system.mem_ctrls.dram.rank1.pwrStateTime::PRE_PDN            0                       # Time in different power states (Tick)
system.mem_ctrls.dram.rank1.pwrStateTime::ACT  25278630750                       # Time in different power states (Tick)
system.mem_ctrls.dram.rank1.pwrStateTime::ACT_PDN            0                       # Time in different power states (Tick)
system.mem_ctrls.power_state.pwrStateResidencyTicks::UNDEFINED  27866685000                       # Cumulative time (in ticks) in various power states (Tick)
system.membus.transDist::ReadResp              382208                       # Transaction distribution (Count)
system.membus.transDist::WritebackDirty         22197                       # Transaction distribution (Count)
system.membus.transDist::WritebackClean         57737                       # Transaction distribution (Count)
system.membus.transDist::CleanEvict            311186                       # Transaction distribution (Count)
system.membus.transDist::ReadExReq               9114                       # Transaction distribution (Count)
system.membus.transDist::ReadExResp              9114                       # Transaction distribution (Count)
system.membus.transDist::ReadCleanReq           58184                       # Transaction distribution (Count)
system.membus.transDist::ReadSharedReq         324027                       # Transaction distribution (Count)
system.membus.transDist::InvalidateReq            371                       # Transaction distribution (Count)
system.membus.pktCount_system.cpu.icache.mem_side_port::system.mem_ctrls.port       174103                       # Packet count per connected requestor and responder (Count)
system.membus.pktCount_system.cpu.dcache.mem_side_port::system.mem_ctrls.port      1000035                       # Packet count per connected requestor and responder (Count)
system.membus.pktCount::total                 1174138                       # Packet count per connected requestor and responder (Count)
system.membus.pktSize_system.cpu.icache.mem_side_port::system.mem_ctrls.port      7418816                       # Cumulative packet size per connected requestor and responder (Byte)
system.membus.pktSize_system.cpu.dcache.mem_side_port::system.mem_ctrls.port     22741568                       # Cumulative packet size per connected requestor and responder (Byte)
system.membus.pktSize::total                 30160384                       # Cumulative packet size per connected requestor and responder (Byte)
system.membus.snoops                                0                       # Total snoops (Count)
system.membus.snoopTraffic                          0                       # Total snoop traffic (Byte)
system.membus.snoopFanout::samples             391696                       # Request fanout histogram (Count)
system.membus.snoopFanout::mean              0.000005                       # Request fanout histogram (Count)
system.membus.snoopFanout::stdev             0.002260                       # Request fanout histogram (Count)
system.membus.snoopFanout::underflows               0      0.00%      0.00% # Request fanout histogram (Count)
system.membus.snoopFanout::0                   391694    100.00%    100.00% # Request fanout histogram (Count)
system.membus.snoopFanout::1                        2      0.00%    100.00% # Request fanout histogram (Count)
system.membus.snoopFanout::2                        0      0.00%    100.00% # Request fanout histogram (Count)
system.membus.snoopFanout::3                        0      0.00%    100.00% # Request fanout histogram (Count)
system.membus.snoopFanout::4                        0      0.00%    100.00% # Request fanout histogram (Count)
system.membus.snoopFanout::overflows                0      0.00%    100.00% # Request fanout histogram (Count)
system.membus.snoopFanout::min_value                0                       # Request fanout histogram (Count)
system.membus.snoopFanout::max_value                1                       # Request fanout histogram (Count)
system.membus.snoopFanout::total               391696                       # Request fanout histogram (Count)
system.membus.power_state.pwrStateResidencyTicks::UNDEFINED  27866685000                       # Cumulative time (in ticks) in various power states (Tick)
system.membus.reqLayer0.occupancy          1254478000                       # Layer occupancy (ticks) (Tick)
system.membus.reqLayer0.utilization               0.0                       # Layer utilization (Ratio)
system.membus.respLayer1.occupancy          291173250                       # Layer occupancy (ticks) (Tick)
system.membus.respLayer1.utilization              0.0                       # Layer utilization (Ratio)
system.membus.respLayer2.occupancy         1755971750                       # Layer occupancy (ticks) (Tick)
system.membus.respLayer2.utilization              0.1                       # Layer utilization (Ratio)
system.membus.snoop_filter.totRequests         782816                       # Total number of requests made to the snoop filter. (Count)
system.membus.snoop_filter.hitSingleRequests       391122                       # Number of requests hitting in the snoop filter with a single holder of the requested data. (Count)
system.membus.snoop_filter.hitMultiRequests            0                       # Number of requests hitting in the snoop filter with multiple (>1) holders of the requested data. (Count)
system.membus.snoop_filter.totSnoops                0                       # Total number of snoops made to the snoop filter. (Count)
system.membus.snoop_filter.hitSingleSnoops            0                       # Number of snoops hitting in the snoop filter with a single holder of the requested data. (Count)
system.membus.snoop_filter.hitMultiSnoops            0                       # Number of snoops hitting in the snoop filter with multiple (>1) holders of the requested data. (Count)
system.voltage_domain.voltage                       1                       # Voltage in Volts (Volt)
system.workload.inst.arm                            0                       # number of arm instructions executed (Count)
system.workload.inst.quiesce                        0                       # number of quiesce instructions executed (Count)

---------- End Simulation Statistics   ----------
