
---------- Begin Simulation Statistics ----------
simSeconds                                   0.013383                       # Number of seconds simulated (Second)
simTicks                                  13383417500                       # Number of ticks simulated (Tick)
finalTick                                 13383417500                       # Number of ticks from beginning of simulation (restored from checkpoints and never reset) (Tick)
simFreq                                  1000000000000                       # The number of ticks per simulated second ((Tick/Second))
hostSeconds                                     61.75                       # Real time elapsed on the host (Second)
hostTickRate                                216749452                       # The number of ticks simulated per host second (ticks/s) ((Tick/Second))
hostMemory                                     640020                       # Number of bytes of host memory used (Byte)
simInsts                                     48982758                       # Number of instructions simulated (Count)
simOps                                       48982773                       # Number of ops (including micro ops) simulated (Count)
hostInstRate                                   793294                       # Simulator instruction rate (inst/s) ((Count/Second))
hostOpRate                                     793294                       # Simulator op (including micro ops) rate (op/s) ((Count/Second))
system.clk_domain.clock                          1000                       # Clock period in ticks (Tick)
system.cpu.numCycles                         26766836                       # Number of cpu cycles simulated (Cycle)
system.cpu.numWorkItemsStarted                      0                       # Number of work items this cpu started (Count)
system.cpu.numWorkItemsCompleted                    0                       # Number of work items this cpu completed (Count)
system.cpu.instsAdded                        53117614                       # Number of instructions added to the IQ (excludes non-spec) (Count)
system.cpu.nonSpecInstsAdded                    33442                       # Number of non-speculative instructions added to the IQ (Count)
system.cpu.instsIssued                       51921117                       # Number of instructions issued (Count)
system.cpu.squashedInstsIssued                  67611                       # Number of squashed instructions issued (Count)
system.cpu.squashedInstsExamined              4168282                       # Number of squashed instructions iterated over during squash; mainly for profiling (Count)
system.cpu.squashedOperandsExamined           2195306                       # Number of squashed operands that are examined and possibly removed from graph (Count)
system.cpu.squashedNonSpecRemoved                4694                       # Number of squashed non-spec instructions that were removed (Count)
system.cpu.numIssuedDist::samples            25669519                       # Number of insts issued each cycle (Count)
system.cpu.numIssuedDist::mean               2.022676                       # Number of insts issued each cycle (Count)
system.cpu.numIssuedDist::stdev              2.051524                       # Number of insts issued each cycle (Count)
system.cpu.numIssuedDist::underflows                0      0.00%      0.00% # Number of insts issued each cycle (Count)
system.cpu.numIssuedDist::0                   7969629     31.05%     31.05% # Number of insts issued each cycle (Count)
system.cpu.numIssuedDist::1                   4911830     19.13%     50.18% # Number of insts issued each cycle (Count)
system.cpu.numIssuedDist::2                   4023141     15.67%     65.85% # Number of insts issued each cycle (Count)
system.cpu.numIssuedDist::3                   2921689     11.38%     77.24% # Number of insts issued each cycle (Count)
system.cpu.numIssuedDist::4                   2456495      9.57%     86.81% # Number of insts issued each cycle (Count)
system.cpu.numIssuedDist::5                   1452628      5.66%     92.47% # Number of insts issued each cycle (Count)
system.cpu.numIssuedDist::6                    907361      3.53%     96.00% # Number of insts issued each cycle (Count)
system.cpu.numIssuedDist::7                    549316      2.14%     98.14% # Number of insts issued each cycle (Count)
system.cpu.numIssuedDist::8                    477430      1.86%    100.00% # Number of insts issued each cycle (Count)
system.cpu.numIssuedDist::overflows                 0      0.00%    100.00% # Number of insts issued each cycle (Count)
system.cpu.numIssuedDist::min_value                 0                       # Number of insts issued each cycle (Count)
system.cpu.numIssuedDist::max_value                 8                       # Number of insts issued each cycle (Count)
system.cpu.numIssuedDist::total              25669519                       # Number of insts issued each cycle (Count)
system.cpu.statFuBusy::No_OpClass                   0      0.00%      0.00% # attempts to use FU when none available (Count)
system.cpu.statFuBusy::IntAlu                  219408     13.22%     13.22% # attempts to use FU when none available (Count)
system.cpu.statFuBusy::IntMult                  81420      4.91%     18.13% # attempts to use FU when none available (Count)
system.cpu.statFuBusy::IntDiv                    1231      0.07%     18.20% # attempts to use FU when none available (Count)
system.cpu.statFuBusy::FloatAdd                     0      0.00%     18.20% # attempts to use FU when none available (Count)
system.cpu.statFuBusy::FloatCmp                     0      0.00%     18.20% # attempts to use FU when none available (Count)
system.cpu.statFuBusy::FloatCvt                     0      0.00%     18.20% # attempts to use FU when none available (Count)
system.cpu.statFuBusy::FloatMult                    0      0.00%     18.20% # attempts to use FU when none available (Count)
system.cpu.statFuBusy::FloatMultAcc                 0      0.00%     18.20% # attempts to use FU when none available (Count)
system.cpu.statFuBusy::FloatDiv                     0      0.00%     18.20% # attempts to use FU when none available (Count)
system.cpu.statFuBusy::FloatMisc                    0      0.00%     18.20% # attempts to use FU when none available (Count)
system.cpu.statFuBusy::FloatSqrt                    0      0.00%     18.20% # attempts to use FU when none available (Count)
system.cpu.statFuBusy::SimdAdd                      0      0.00%     18.20% # attempts to use FU when none available (Count)
system.cpu.statFuBusy::SimdAddAcc                   0      0.00%     18.20% # attempts to use FU when none available (Count)
system.cpu.statFuBusy::SimdAlu                      0      0.00%     18.20% # attempts to use FU when none available (Count)
system.cpu.statFuBusy::SimdCmp                      0      0.00%     18.20% # attempts to use FU when none available (Count)
system.cpu.statFuBusy::SimdCvt                      0      0.00%     18.20% # attempts to use FU when none available (Count)
system.cpu.statFuBusy::SimdMisc                     0      0.00%     18.20% # attempts to use FU when none available (Count)
system.cpu.statFuBusy::SimdMult                     0      0.00%     18.20% # attempts to use FU when none available (Count)
system.cpu.statFuBusy::SimdMultAcc                  0      0.00%     18.20% # attempts to use FU when none available (Count)
system.cpu.statFuBusy::SimdShift                    0      0.00%     18.20% # attempts to use FU when none available (Count)
system.cpu.statFuBusy::SimdShiftAcc                 0      0.00%     18.20% # attempts to use FU when none available (Count)
system.cpu.statFuBusy::SimdDiv                      0      0.00%     18.20% # attempts to use FU when none available (Count)
system.cpu.statFuBusy::SimdSqrt                     0      0.00%     18.20% # attempts to use FU when none available (Count)
system.cpu.statFuBusy::SimdFloatAdd                 0      0.00%     18.20% # attempts to use FU when none available (Count)
system.cpu.statFuBusy::SimdFloatAlu                 0      0.00%     18.20% # attempts to use FU when none available (Count)
system.cpu.statFuBusy::SimdFloatCmp                 0      0.00%     18.20% # attempts to use FU when none available (Count)
system.cpu.statFuBusy::SimdFloatCvt                 0      0.00%     18.20% # attempts to use FU when none available (Count)
system.cpu.statFuBusy::SimdFloatDiv                 0      0.00%     18.20% # attempts to use FU when none available (Count)
system.cpu.statFuBusy::SimdFloatMisc                0      0.00%     18.20% # attempts to use FU when none available (Count)
system.cpu.statFuBusy::SimdFloatMult                0      0.00%     18.20% # attempts to use FU when none available (Count)
system.cpu.statFuBusy::SimdFloatMultAcc             0      0.00%     18.20% # attempts to use FU when none available (Count)
system.cpu.statFuBusy::SimdFloatSqrt                0      0.00%     18.20% # attempts to use FU when none available (Count)
system.cpu.statFuBusy::SimdReduceAdd                0      0.00%     18.20% # attempts to use FU when none available (Count)
system.cpu.statFuBusy::SimdReduceAlu                0      0.00%     18.20% # attempts to use FU when none available (Count)
system.cpu.statFuBusy::SimdReduceCmp                0      0.00%     18.20% # attempts to use FU when none available (Count)
system.cpu.statFuBusy::SimdFloatReduceAdd            0      0.00%     18.20% # attempts to use FU when none available (Count)
system.cpu.statFuBusy::SimdFloatReduceCmp            0      0.00%     18.20% # attempts to use FU when none available (Count)
system.cpu.statFuBusy::SimdAes                      0      0.00%     18.20% # attempts to use FU when none available (Count)
system.cpu.statFuBusy::SimdAesMix                   0      0.00%     18.20% # attempts to use FU when none available (Count)
system.cpu.statFuBusy::SimdSha1Hash                 0      0.00%     18.20% # attempts to use FU when none available (Count)
system.cpu.statFuBusy::SimdSha1Hash2                0      0.00%     18.20% # attempts to use FU when none available (Count)
system.cpu.statFuBusy::SimdSha256Hash               0      0.00%     18.20% # attempts to use FU when none available (Count)
system.cpu.statFuBusy::SimdSha256Hash2              0      0.00%     18.20% # attempts to use FU when none available (Count)
system.cpu.statFuBusy::SimdShaSigma2                0      0.00%     18.20% # attempts to use FU when none available (Count)
system.cpu.statFuBusy::SimdShaSigma3                0      0.00%     18.20% # attempts to use FU when none available (Count)
system.cpu.statFuBusy::SimdPredAlu                  0      0.00%     18.20% # attempts to use FU when none available (Count)
system.cpu.statFuBusy::MemRead                 862910     52.00%     70.20% # attempts to use FU when none available (Count)
system.cpu.statFuBusy::MemWrite                491945     29.64%     99.84% # attempts to use FU when none available (Count)
system.cpu.statFuBusy::FloatMemRead              2662      0.16%    100.00% # attempts to use FU when none available (Count)
system.cpu.statFuBusy::FloatMemWrite                4      0.00%    100.00% # attempts to use FU when none available (Count)
system.cpu.statFuBusy::IprAccess                    0      0.00%    100.00% # attempts to use FU when none available (Count)
system.cpu.statFuBusy::InstPrefetch                 0      0.00%    100.00% # attempts to use FU when none available (Count)
system.cpu.statIssuedInstType_0::No_OpClass        28722      0.06%      0.06% # Number of instructions issued per FU type, per thread (Count)
system.cpu.statIssuedInstType_0::IntAlu      33232842     64.01%     64.06% # Number of instructions issued per FU type, per thread (Count)
system.cpu.statIssuedInstType_0::IntMult       479277      0.92%     64.98% # Number of instructions issued per FU type, per thread (Count)
system.cpu.statIssuedInstType_0::IntDiv        319388      0.62%     65.60% # Number of instructions issued per FU type, per thread (Count)
system.cpu.statIssuedInstType_0::FloatAdd       278596      0.54%     66.14% # Number of instructions issued per FU type, per thread (Count)
system.cpu.statIssuedInstType_0::FloatCmp        16389      0.03%     66.17% # Number of instructions issued per FU type, per thread (Count)
system.cpu.statIssuedInstType_0::FloatCvt        28672      0.06%     66.22% # Number of instructions issued per FU type, per thread (Count)
system.cpu.statIssuedInstType_0::FloatMult       262205      0.51%     66.73% # Number of instructions issued per FU type, per thread (Count)
system.cpu.statIssuedInstType_0::FloatMultAcc            0      0.00%     66.73% # Number of instructions issued per FU type, per thread (Count)
system.cpu.statIssuedInstType_0::FloatDiv            0      0.00%     66.73% # Number of instructions issued per FU type, per thread (Count)
system.cpu.statIssuedInstType_0::FloatMisc         4096      0.01%     66.74% # Number of instructions issued per FU type, per thread (Count)
system.cpu.statIssuedInstType_0::FloatSqrt            0      0.00%     66.74% # Number of instructions issued per FU type, per thread (Count)
system.cpu.statIssuedInstType_0::SimdAdd            0      0.00%     66.74% # Number of instructions issued per FU type, per thread (Count)
system.cpu.statIssuedInstType_0::SimdAddAcc            0      0.00%     66.74% # Number of instructions issued per FU type, per thread (Count)
system.cpu.statIssuedInstType_0::SimdAlu            0      0.00%     66.74% # Number of instructions issued per FU type, per thread (Count)
system.cpu.statIssuedInstType_0::SimdCmp            0      0.00%     66.74% # Number of instructions issued per FU type, per thread (Count)
system.cpu.statIssuedInstType_0::SimdCvt            0      0.00%     66.74% # Number of instructions issued per FU type, per thread (Count)
system.cpu.statIssuedInstType_0::SimdMisc            0      0.00%     66.74% # Number of instructions issued per FU type, per thread (Count)
system.cpu.statIssuedInstType_0::SimdMult            0      0.00%     66.74% # Number of instructions issued per FU type, per thread (Count)
system.cpu.statIssuedInstType_0::SimdMultAcc            0      0.00%     66.74% # Number of instructions issued per FU type, per thread (Count)
system.cpu.statIssuedInstType_0::SimdShift            0      0.00%     66.74% # Number of instructions issued per FU type, per thread (Count)
system.cpu.statIssuedInstType_0::SimdShiftAcc            0      0.00%     66.74% # Number of instructions issued per FU type, per thread (Count)
system.cpu.statIssuedInstType_0::SimdDiv            0      0.00%     66.74% # Number of instructions issued per FU type, per thread (Count)
system.cpu.statIssuedInstType_0::SimdSqrt            0      0.00%     66.74% # Number of instructions issued per FU type, per thread (Count)
system.cpu.statIssuedInstType_0::SimdFloatAdd            0      0.00%     66.74% # Number of instructions issued per FU type, per thread (Count)
system.cpu.statIssuedInstType_0::SimdFloatAlu            0      0.00%     66.74% # Number of instructions issued per FU type, per thread (Count)
system.cpu.statIssuedInstType_0::SimdFloatCmp            0      0.00%     66.74% # Number of instructions issued per FU type, per thread (Count)
system.cpu.statIssuedInstType_0::SimdFloatCvt            0      0.00%     66.74% # Number of instructions issued per FU type, per thread (Count)
system.cpu.statIssuedInstType_0::SimdFloatDiv            0      0.00%     66.74% # Number of instructions issued per FU type, per thread (Count)
system.cpu.statIssuedInstType_0::SimdFloatMisc            0      0.00%     66.74% # Number of instructions issued per FU type, per thread (Count)
system.cpu.statIssuedInstType_0::SimdFloatMult            0      0.00%     66.74% # Number of instructions issued per FU type, per thread (Count)
system.cpu.statIssuedInstType_0::SimdFloatMultAcc            0      0.00%     66.74% # Number of instructions issued per FU type, per thread (Count)
system.cpu.statIssuedInstType_0::SimdFloatSqrt            0      0.00%     66.74% # Number of instructions issued per FU type, per thread (Count)
system.cpu.statIssuedInstType_0::SimdReduceAdd            0      0.00%     66.74% # Number of instructions issued per FU type, per thread (Count)
system.cpu.statIssuedInstType_0::SimdReduceAlu            0      0.00%     66.74% # Number of instructions issued per FU type, per thread (Count)
system.cpu.statIssuedInstType_0::SimdReduceCmp            0      0.00%     66.74% # Number of instructions issued per FU type, per thread (Count)
system.cpu.statIssuedInstType_0::SimdFloatReduceAdd            0      0.00%     66.74% # Number of instructions issued per FU type, per thread (Count)
system.cpu.statIssuedInstType_0::SimdFloatReduceCmp            0      0.00%     66.74% # Number of instructions issued per FU type, per thread (Count)
system.cpu.statIssuedInstType_0::SimdAes            0      0.00%     66.74% # Number of instructions issued per FU type, per thread (Count)
system.cpu.statIssuedInstType_0::SimdAesMix            0      0.00%     66.74% # Number of instructions issued per FU type, per thread (Count)
system.cpu.statIssuedInstType_0::SimdSha1Hash            0      0.00%     66.74% # Number of instructions issued per FU type, per thread (Count)
system.cpu.statIssuedInstType_0::SimdSha1Hash2            0      0.00%     66.74% # Number of instructions issued per FU type, per thread (Count)
system.cpu.statIssuedInstType_0::SimdSha256Hash            0      0.00%     66.74% # Number of instructions issued per FU type, per thread (Count)
system.cpu.statIssuedInstType_0::SimdSha256Hash2            0      0.00%     66.74% # Number of instructions issued per FU type, per thread (Count)
system.cpu.statIssuedInstType_0::SimdShaSigma2            0      0.00%     66.74% # Number of instructions issued per FU type, per thread (Count)
system.cpu.statIssuedInstType_0::SimdShaSigma3            0      0.00%     66.74% # Number of instructions issued per FU type, per thread (Count)
system.cpu.statIssuedInstType_0::SimdPredAlu            0      0.00%     66.74% # Number of instructions issued per FU type, per thread (Count)
system.cpu.statIssuedInstType_0::MemRead     10505602     20.23%     86.97% # Number of instructions issued per FU type, per thread (Count)
system.cpu.statIssuedInstType_0::MemWrite      5035795      9.70%     96.67% # Number of instructions issued per FU type, per thread (Count)
system.cpu.statIssuedInstType_0::FloatMemRead      1147760      2.21%     98.88% # Number of instructions issued per FU type, per thread (Count)
system.cpu.statIssuedInstType_0::FloatMemWrite       581773      1.12%    100.00% # Number of instructions issued per FU type, per thread (Count)
system.cpu.statIssuedInstType_0::IprAccess            0      0.00%    100.00% # Number of instructions issued per FU type, per thread (Count)
system.cpu.statIssuedInstType_0::InstPrefetch            0      0.00%    100.00% # Number of instructions issued per FU type, per thread (Count)
system.cpu.statIssuedInstType_0::total       51921117                       # Number of instructions issued per FU type, per thread (Count)
system.cpu.issueRate                         1.939755                       # Inst issue rate ((Count/Cycle))
system.cpu.fuBusy                             1659580                       # FU busy when requested (Count)
system.cpu.fuBusyRate                        0.031963                       # FU busy rate (busy events/executed inst) ((Count/Count))
system.cpu.intInstQueueReads                126597291                       # Number of integer instruction queue reads (Count)
system.cpu.intInstQueueWrites                54887656                       # Number of integer instruction queue writes (Count)
system.cpu.intInstQueueWakeupAccesses        49083635                       # Number of integer instruction queue wakeup accesses (Count)
system.cpu.fpInstQueueReads                   4641653                       # Number of floating instruction queue reads (Count)
system.cpu.fpInstQueueWrites                  2444736                       # Number of floating instruction queue writes (Count)
system.cpu.fpInstQueueWakeupAccesses          2306815                       # Number of floating instruction queue wakeup accesses (Count)
system.cpu.vecInstQueueReads                        0                       # Number of vector instruction queue reads (Count)
system.cpu.vecInstQueueWrites                       0                       # Number of vector instruction queue writes (Count)
system.cpu.vecInstQueueWakeupAccesses               0                       # Number of vector instruction queue wakeup accesses (Count)
system.cpu.intAluAccesses                    51229818                       # Number of integer alu accesses (Count)
system.cpu.fpAluAccesses                      2322157                       # Number of floating point alu accesses (Count)
system.cpu.vecAluAccesses                           0                       # Number of vector alu accesses (Count)
system.cpu.numInsts                          51589011                       # Number of executed instructions (Count)
system.cpu.numLoadInsts                      11531441                       # Number of load instructions executed (Count)
system.cpu.numSquashedInsts                    332106                       # Number of squashed instructions skipped in execute (Count)
system.cpu.numSwp                                   0                       # Number of swp insts executed (Count)
system.cpu.numNop                                   0                       # Number of nop insts executed (Count)
system.cpu.numRefs                           17134095                       # Number of memory reference insts executed (Count)
system.cpu.numBranches                        9001710                       # Number of branches executed (Count)
system.cpu.numStoreInsts                      5602654                       # Number of stores executed (Count)
system.cpu.numRate                           1.927348                       # Inst execution rate ((Count/Cycle))
system.cpu.timesIdled                           50715                       # Number of times that the entire CPU went into an idle state and unscheduled itself (Count)
system.cpu.idleCycles                         1097317                       # Total number of cycles that the CPU has spent unscheduled due to idling (Cycle)
system.cpu.committedInsts                    48982758                       # Number of Instructions Simulated (Count)
system.cpu.committedOps                      48982773                       # Number of Ops (including micro ops) Simulated (Count)
system.cpu.cpi                               0.546454                       # CPI: Cycles Per Instruction ((Cycle/Count))
system.cpu.totalCpi                          0.546454                       # CPI: Total CPI of All Threads ((Cycle/Count))
system.cpu.ipc                               1.829979                       # IPC: Instructions Per Cycle ((Count/Cycle))
system.cpu.totalIpc                          1.829979                       # IPC: Total IPC of All Threads ((Count/Cycle))
system.cpu.intRegfileReads                   64229984                       # Number of integer regfile reads (Count)
system.cpu.intRegfileWrites                  35869073                       # Number of integer regfile writes (Count)
system.cpu.fpRegfileReads                     1712531                       # Number of floating regfile reads (Count)
system.cpu.fpRegfileWrites                    1700498                       # Number of floating regfile writes (Count)
system.cpu.miscRegfileReads                   3449918                       # number of misc regfile reads (Count)
system.cpu.miscRegfileWrites                   589824                       # number of misc regfile writes (Count)
system.cpu.MemDepUnit__0.insertedLoads       11809889                       # Number of loads inserted to the mem dependence unit. (Count)
system.cpu.MemDepUnit__0.insertedStores       5738873                       # Number of stores inserted to the mem dependence unit. (Count)
system.cpu.MemDepUnit__0.conflictingLoads      2955645                       # Number of conflicting loads. (Count)
system.cpu.MemDepUnit__0.conflictingStores      1094938                       # Number of conflicting stores. (Count)
system.cpu.MemDepUnit__1.insertedLoads              0                       # Number of loads inserted to the mem dependence unit. (Count)
system.cpu.MemDepUnit__1.insertedStores             0                       # Number of stores inserted to the mem dependence unit. (Count)
system.cpu.MemDepUnit__1.conflictingLoads            0                       # Number of conflicting loads. (Count)
system.cpu.MemDepUnit__1.conflictingStores            0                       # Number of conflicting stores. (Count)
system.cpu.MemDepUnit__2.insertedLoads              0                       # Number of loads inserted to the mem dependence unit. (Count)
system.cpu.MemDepUnit__2.insertedStores             0                       # Number of stores inserted to the mem dependence unit. (Count)
system.cpu.MemDepUnit__2.conflictingLoads            0                       # Number of conflicting loads. (Count)
system.cpu.MemDepUnit__2.conflictingStores            0                       # Number of conflicting stores. (Count)
system.cpu.MemDepUnit__3.insertedLoads              0                       # Number of loads inserted to the mem dependence unit. (Count)
system.cpu.MemDepUnit__3.insertedStores             0                       # Number of stores inserted to the mem dependence unit. (Count)
system.cpu.MemDepUnit__3.conflictingLoads            0                       # Number of conflicting loads. (Count)
system.cpu.MemDepUnit__3.conflictingStores            0                       # Number of conflicting stores. (Count)
system.cpu.branchPred.lookups                10353053                       # Number of BP lookups (Count)
system.cpu.branchPred.condPredicted           7876989                       # Number of conditional branches predicted (Count)
system.cpu.branchPred.condIncorrect            194316                       # Number of conditional branches incorrect (Count)
system.cpu.branchPred.BTBLookups              5905586                       # Number of BTB lookups (Count)
system.cpu.branchPred.BTBHits                 5881309                       # Number of BTB hits (Count)
system.cpu.branchPred.BTBHitRatio            0.995889                       # BTB Hit Ratio (Ratio)
system.cpu.branchPred.RASUsed                       0                       # Number of times the RAS was used to get a target. (Count)
system.cpu.branchPred.RASIncorrect                  0                       # Number of incorrect RAS predictions. (Count)
system.cpu.branchPred.indirectLookups          600907                       # Number of indirect predictor lookups. (Count)
system.cpu.branchPred.indirectHits             598972                       # Number of indirect target hits. (Count)
system.cpu.branchPred.indirectMisses             1935                       # Number of indirect misses. (Count)
system.cpu.branchPred.indirectMispredicted        19883                       # Number of mispredicted indirect branches. (Count)
system.cpu.commit.commitSquashedInsts         4168104                       # The number of squashed insts skipped by commit (Count)
system.cpu.commit.commitNonSpecStalls           28748                       # The number of times commit has been forced to stall to communicate backwards (Count)
system.cpu.commit.branchMispredicts            181914                       # The number of times a branch was mispredicted (Count)
system.cpu.commit.numCommittedDist::samples     25043869                       # Number of insts commited each cycle (Count)
system.cpu.commit.numCommittedDist::mean     1.955879                       # Number of insts commited each cycle (Count)
system.cpu.commit.numCommittedDist::stdev     2.648516                       # Number of insts commited each cycle (Count)
system.cpu.commit.numCommittedDist::underflows            0      0.00%      0.00% # Number of insts commited each cycle (Count)
system.cpu.commit.numCommittedDist::0        10630498     42.45%     42.45% # Number of insts commited each cycle (Count)
system.cpu.commit.numCommittedDist::1         5111222     20.41%     62.86% # Number of insts commited each cycle (Count)
system.cpu.commit.numCommittedDist::2         2811903     11.23%     74.08% # Number of insts commited each cycle (Count)
system.cpu.commit.numCommittedDist::3         1633835      6.52%     80.61% # Number of insts commited each cycle (Count)
system.cpu.commit.numCommittedDist::4          628548      2.51%     83.12% # Number of insts commited each cycle (Count)
system.cpu.commit.numCommittedDist::5          652935      2.61%     85.73% # Number of insts commited each cycle (Count)
system.cpu.commit.numCommittedDist::6          359938      1.44%     87.16% # Number of insts commited each cycle (Count)
system.cpu.commit.numCommittedDist::7          312175      1.25%     88.41% # Number of insts commited each cycle (Count)
system.cpu.commit.numCommittedDist::8         2902815     11.59%    100.00% # Number of insts commited each cycle (Count)
system.cpu.commit.numCommittedDist::overflows            0      0.00%    100.00% # Number of insts commited each cycle (Count)
system.cpu.commit.numCommittedDist::min_value            0                       # Number of insts commited each cycle (Count)
system.cpu.commit.numCommittedDist::max_value            8                       # Number of insts commited each cycle (Count)
system.cpu.commit.numCommittedDist::total     25043869                       # Number of insts commited each cycle (Count)
system.cpu.commit.instsCommitted             48982758                       # Number of instructions committed (Count)
system.cpu.commit.opsCommitted               48982773                       # Number of ops (including micro ops) committed (Count)
system.cpu.commit.memRefs                    16254198                       # Number of memory references committed (Count)
system.cpu.commit.loads                      10945204                       # Number of loads committed (Count)
system.cpu.commit.amos                             17                       # Number of atomic instructions committed (Count)
system.cpu.commit.membars                          25                       # Number of memory barriers committed (Count)
system.cpu.commit.branches                    8372520                       # Number of branches committed (Count)
system.cpu.commit.vectorInstructions                0                       # Number of committed Vector instructions. (Count)
system.cpu.commit.floating                    2289676                       # Number of committed floating point instructions. (Count)
system.cpu.commit.integer                    47606916                       # Number of committed integer instructions. (Count)
system.cpu.commit.functionCalls               1174802                       # Number of function calls committed. (Count)
system.cpu.commit.committedInstType_0::No_OpClass        24601      0.05%      0.05% # Class of committed instruction (Count)
system.cpu.commit.committedInstType_0::IntAlu     31319113     63.94%     63.99% # Class of committed instruction (Count)
system.cpu.commit.committedInstType_0::IntMult       479222      0.98%     64.97% # Class of committed instruction (Count)
system.cpu.commit.committedInstType_0::IntDiv       315815      0.64%     65.61% # Class of committed instruction (Count)
system.cpu.commit.committedInstType_0::FloatAdd       278528      0.57%     66.18% # Class of committed instruction (Count)
system.cpu.commit.committedInstType_0::FloatCmp        16384      0.03%     66.21% # Class of committed instruction (Count)
system.cpu.commit.committedInstType_0::FloatCvt        28672      0.06%     66.27% # Class of committed instruction (Count)
system.cpu.commit.committedInstType_0::FloatMult       262144      0.54%     66.81% # Class of committed instruction (Count)
system.cpu.commit.committedInstType_0::FloatMultAcc            0      0.00%     66.81% # Class of committed instruction (Count)
system.cpu.commit.committedInstType_0::FloatDiv            0      0.00%     66.81% # Class of committed instruction (Count)
system.cpu.commit.committedInstType_0::FloatMisc         4096      0.01%     66.82% # Class of committed instruction (Count)
system.cpu.commit.committedInstType_0::FloatSqrt            0      0.00%     66.82% # Class of committed instruction (Count)
system.cpu.commit.committedInstType_0::SimdAdd            0      0.00%     66.82% # Class of committed instruction (Count)
system.cpu.commit.committedInstType_0::SimdAddAcc            0      0.00%     66.82% # Class of committed instruction (Count)
system.cpu.commit.committedInstType_0::SimdAlu            0      0.00%     66.82% # Class of committed instruction (Count)
system.cpu.commit.committedInstType_0::SimdCmp            0      0.00%     66.82% # Class of committed instruction (Count)
system.cpu.commit.committedInstType_0::SimdCvt            0      0.00%     66.82% # Class of committed instruction (Count)
system.cpu.commit.committedInstType_0::SimdMisc            0      0.00%     66.82% # Class of committed instruction (Count)
system.cpu.commit.committedInstType_0::SimdMult            0      0.00%     66.82% # Class of committed instruction (Count)
system.cpu.commit.committedInstType_0::SimdMultAcc            0      0.00%     66.82% # Class of committed instruction (Count)
system.cpu.commit.committedInstType_0::SimdShift            0      0.00%     66.82% # Class of committed instruction (Count)
system.cpu.commit.committedInstType_0::SimdShiftAcc            0      0.00%     66.82% # Class of committed instruction (Count)
system.cpu.commit.committedInstType_0::SimdDiv            0      0.00%     66.82% # Class of committed instruction (Count)
system.cpu.commit.committedInstType_0::SimdSqrt            0      0.00%     66.82% # Class of committed instruction (Count)
system.cpu.commit.committedInstType_0::SimdFloatAdd            0      0.00%     66.82% # Class of committed instruction (Count)
system.cpu.commit.committedInstType_0::SimdFloatAlu            0      0.00%     66.82% # Class of committed instruction (Count)
system.cpu.commit.committedInstType_0::SimdFloatCmp            0      0.00%     66.82% # Class of committed instruction (Count)
system.cpu.commit.committedInstType_0::SimdFloatCvt            0      0.00%     66.82% # Class of committed instruction (Count)
system.cpu.commit.committedInstType_0::SimdFloatDiv            0      0.00%     66.82% # Class of committed instruction (Count)
system.cpu.commit.committedInstType_0::SimdFloatMisc            0      0.00%     66.82% # Class of committed instruction (Count)
system.cpu.commit.committedInstType_0::SimdFloatMult            0      0.00%     66.82% # Class of committed instruction (Count)
system.cpu.commit.committedInstType_0::SimdFloatMultAcc            0      0.00%     66.82% # Class of committed instruction (Count)
system.cpu.commit.committedInstType_0::SimdFloatSqrt            0      0.00%     66.82% # Class of committed instruction (Count)
system.cpu.commit.committedInstType_0::SimdReduceAdd            0      0.00%     66.82% # Class of committed instruction (Count)
system.cpu.commit.committedInstType_0::SimdReduceAlu            0      0.00%     66.82% # Class of committed instruction (Count)
system.cpu.commit.committedInstType_0::SimdReduceCmp            0      0.00%     66.82% # Class of committed instruction (Count)
system.cpu.commit.committedInstType_0::SimdFloatReduceAdd            0      0.00%     66.82% # Class of committed instruction (Count)
system.cpu.commit.committedInstType_0::SimdFloatReduceCmp            0      0.00%     66.82% # Class of committed instruction (Count)
system.cpu.commit.committedInstType_0::SimdAes            0      0.00%     66.82% # Class of committed instruction (Count)
system.cpu.commit.committedInstType_0::SimdAesMix            0      0.00%     66.82% # Class of committed instruction (Count)
system.cpu.commit.committedInstType_0::SimdSha1Hash            0      0.00%     66.82% # Class of committed instruction (Count)
system.cpu.commit.committedInstType_0::SimdSha1Hash2            0      0.00%     66.82% # Class of committed instruction (Count)
system.cpu.commit.committedInstType_0::SimdSha256Hash            0      0.00%     66.82% # Class of committed instruction (Count)
system.cpu.commit.committedInstType_0::SimdSha256Hash2            0      0.00%     66.82% # Class of committed instruction (Count)
system.cpu.commit.committedInstType_0::SimdShaSigma2            0      0.00%     66.82% # Class of committed instruction (Count)
system.cpu.commit.committedInstType_0::SimdShaSigma3            0      0.00%     66.82% # Class of committed instruction (Count)
system.cpu.commit.committedInstType_0::SimdPredAlu            0      0.00%     66.82% # Class of committed instruction (Count)
system.cpu.commit.committedInstType_0::MemRead      9818821     20.05%     86.86% # Class of committed instruction (Count)
system.cpu.commit.committedInstType_0::MemWrite      4735525      9.67%     96.53% # Class of committed instruction (Count)
system.cpu.commit.committedInstType_0::FloatMemRead      1126400      2.30%     98.83% # Class of committed instruction (Count)
system.cpu.commit.committedInstType_0::FloatMemWrite       573452      1.17%    100.00% # Class of committed instruction (Count)
system.cpu.commit.committedInstType_0::IprAccess            0      0.00%    100.00% # Class of committed instruction (Count)
system.cpu.commit.committedInstType_0::InstPrefetch            0      0.00%    100.00% # Class of committed instruction (Count)
system.cpu.commit.committedInstType_0::total     48982773                       # Class of committed instruction (Count)
system.cpu.commit.commitEligibleSamples       2902815                       # number cycles where commit BW limit reached (Cycle)
system.cpu.dcache.demandHits::cpu.data       13084124                       # number of demand (read+write) hits (Count)
system.cpu.dcache.demandHits::total          13084124                       # number of demand (read+write) hits (Count)
system.cpu.dcache.overallHits::cpu.data      13084124                       # number of overall hits (Count)
system.cpu.dcache.overallHits::total         13084124                       # number of overall hits (Count)
system.cpu.dcache.demandMisses::cpu.data        63546                       # number of demand (read+write) misses (Count)
system.cpu.dcache.demandMisses::total           63546                       # number of demand (read+write) misses (Count)
system.cpu.dcache.overallMisses::cpu.data        63546                       # number of overall misses (Count)
system.cpu.dcache.overallMisses::total          63546                       # number of overall misses (Count)
system.cpu.dcache.demandMissLatency::cpu.data   3492420485                       # number of demand (read+write) miss ticks (Tick)
system.cpu.dcache.demandMissLatency::total   3492420485                       # number of demand (read+write) miss ticks (Tick)
system.cpu.dcache.overallMissLatency::cpu.data   3492420485                       # number of overall miss ticks (Tick)
system.cpu.dcache.overallMissLatency::total   3492420485                       # number of overall miss ticks (Tick)
system.cpu.dcache.demandAccesses::cpu.data     13147670                       # number of demand (read+write) accesses (Count)
system.cpu.dcache.demandAccesses::total      13147670                       # number of demand (read+write) accesses (Count)
system.cpu.dcache.overallAccesses::cpu.data     13147670                       # number of overall (read+write) accesses (Count)
system.cpu.dcache.overallAccesses::total     13147670                       # number of overall (read+write) accesses (Count)
system.cpu.dcache.demandMissRate::cpu.data     0.004833                       # miss rate for demand accesses (Ratio)
system.cpu.dcache.demandMissRate::total      0.004833                       # miss rate for demand accesses (Ratio)
system.cpu.dcache.overallMissRate::cpu.data     0.004833                       # miss rate for overall accesses (Ratio)
system.cpu.dcache.overallMissRate::total     0.004833                       # miss rate for overall accesses (Ratio)
system.cpu.dcache.demandAvgMissLatency::cpu.data 54958.935023                       # average overall miss latency ((Cycle/Count))
system.cpu.dcache.demandAvgMissLatency::total 54958.935023                       # average overall miss latency ((Cycle/Count))
system.cpu.dcache.overallAvgMissLatency::cpu.data 54958.935023                       # average overall miss latency ((Cycle/Count))
system.cpu.dcache.overallAvgMissLatency::total 54958.935023                       # average overall miss latency ((Cycle/Count))
system.cpu.dcache.blockedCycles::no_mshrs        34715                       # number of cycles access was blocked (Cycle)
system.cpu.dcache.blockedCycles::no_targets           72                       # number of cycles access was blocked (Cycle)
system.cpu.dcache.blockedCauses::no_mshrs         1152                       # number of times access was blocked (Count)
system.cpu.dcache.blockedCauses::no_targets            1                       # number of times access was blocked (Count)
system.cpu.dcache.avgBlocked::no_mshrs      30.134549                       # average number of cycles each access was blocked ((Cycle/Count))
system.cpu.dcache.avgBlocked::no_targets           72                       # average number of cycles each access was blocked ((Cycle/Count))
system.cpu.dcache.writebacks::writebacks        10907                       # number of writebacks (Count)
system.cpu.dcache.writebacks::total             10907                       # number of writebacks (Count)
system.cpu.dcache.demandMshrHits::cpu.data        41927                       # number of demand (read+write) MSHR hits (Count)
system.cpu.dcache.demandMshrHits::total         41927                       # number of demand (read+write) MSHR hits (Count)
system.cpu.dcache.overallMshrHits::cpu.data        41927                       # number of overall MSHR hits (Count)
system.cpu.dcache.overallMshrHits::total        41927                       # number of overall MSHR hits (Count)
system.cpu.dcache.demandMshrMisses::cpu.data        21619                       # number of demand (read+write) MSHR misses (Count)
system.cpu.dcache.demandMshrMisses::total        21619                       # number of demand (read+write) MSHR misses (Count)
system.cpu.dcache.overallMshrMisses::cpu.data        21619                       # number of overall MSHR misses (Count)
system.cpu.dcache.overallMshrMisses::total        21619                       # number of overall MSHR misses (Count)
system.cpu.dcache.demandMshrMissLatency::cpu.data   1095563003                       # number of demand (read+write) MSHR miss ticks (Tick)
system.cpu.dcache.demandMshrMissLatency::total   1095563003                       # number of demand (read+write) MSHR miss ticks (Tick)
system.cpu.dcache.overallMshrMissLatency::cpu.data   1095563003                       # number of overall MSHR miss ticks (Tick)
system.cpu.dcache.overallMshrMissLatency::total   1095563003                       # number of overall MSHR miss ticks (Tick)
system.cpu.dcache.demandMshrMissRate::cpu.data     0.001644                       # mshr miss ratio for demand accesses (Ratio)
system.cpu.dcache.demandMshrMissRate::total     0.001644                       # mshr miss ratio for demand accesses (Ratio)
system.cpu.dcache.overallMshrMissRate::cpu.data     0.001644                       # mshr miss ratio for overall accesses (Ratio)
system.cpu.dcache.overallMshrMissRate::total     0.001644                       # mshr miss ratio for overall accesses (Ratio)
system.cpu.dcache.demandAvgMshrMissLatency::cpu.data 50675.933346                       # average overall mshr miss latency ((Cycle/Count))
system.cpu.dcache.demandAvgMshrMissLatency::total 50675.933346                       # average overall mshr miss latency ((Cycle/Count))
system.cpu.dcache.overallAvgMshrMissLatency::cpu.data 50675.933346                       # average overall mshr miss latency ((Cycle/Count))
system.cpu.dcache.overallAvgMshrMissLatency::total 50675.933346                       # average overall mshr miss latency ((Cycle/Count))
system.cpu.dcache.replacements                  20597                       # number of replacements (Count)
system.cpu.dcache.LoadLockedReq.hits::cpu.data            9                       # number of LoadLockedReq hits (Count)
system.cpu.dcache.LoadLockedReq.hits::total            9                       # number of LoadLockedReq hits (Count)
system.cpu.dcache.LoadLockedReq.misses::cpu.data            4                       # number of LoadLockedReq misses (Count)
system.cpu.dcache.LoadLockedReq.misses::total            4                       # number of LoadLockedReq misses (Count)
system.cpu.dcache.LoadLockedReq.missLatency::cpu.data       325500                       # number of LoadLockedReq miss ticks (Tick)
system.cpu.dcache.LoadLockedReq.missLatency::total       325500                       # number of LoadLockedReq miss ticks (Tick)
system.cpu.dcache.LoadLockedReq.accesses::cpu.data           13                       # number of LoadLockedReq accesses(hits+misses) (Count)
system.cpu.dcache.LoadLockedReq.accesses::total           13                       # number of LoadLockedReq accesses(hits+misses) (Count)
system.cpu.dcache.LoadLockedReq.missRate::cpu.data     0.307692                       # miss rate for LoadLockedReq accesses (Ratio)
system.cpu.dcache.LoadLockedReq.missRate::total     0.307692                       # miss rate for LoadLockedReq accesses (Ratio)
system.cpu.dcache.LoadLockedReq.avgMissLatency::cpu.data        81375                       # average LoadLockedReq miss latency ((Tick/Count))
system.cpu.dcache.LoadLockedReq.avgMissLatency::total        81375                       # average LoadLockedReq miss latency ((Tick/Count))
system.cpu.dcache.LoadLockedReq.mshrHits::cpu.data            2                       # number of LoadLockedReq MSHR hits (Count)
system.cpu.dcache.LoadLockedReq.mshrHits::total            2                       # number of LoadLockedReq MSHR hits (Count)
system.cpu.dcache.LoadLockedReq.mshrMisses::cpu.data            2                       # number of LoadLockedReq MSHR misses (Count)
system.cpu.dcache.LoadLockedReq.mshrMisses::total            2                       # number of LoadLockedReq MSHR misses (Count)
system.cpu.dcache.LoadLockedReq.mshrMissLatency::cpu.data       165500                       # number of LoadLockedReq MSHR miss ticks (Tick)
system.cpu.dcache.LoadLockedReq.mshrMissLatency::total       165500                       # number of LoadLockedReq MSHR miss ticks (Tick)
system.cpu.dcache.LoadLockedReq.mshrMissRate::cpu.data     0.153846                       # mshr miss rate for LoadLockedReq accesses (Ratio)
system.cpu.dcache.LoadLockedReq.mshrMissRate::total     0.153846                       # mshr miss rate for LoadLockedReq accesses (Ratio)
system.cpu.dcache.LoadLockedReq.avgMshrMissLatency::cpu.data        82750                       # average LoadLockedReq mshr miss latency ((Tick/Count))
system.cpu.dcache.LoadLockedReq.avgMshrMissLatency::total        82750                       # average LoadLockedReq mshr miss latency ((Tick/Count))
system.cpu.dcache.ReadReq.hits::cpu.data      7793633                       # number of ReadReq hits (Count)
system.cpu.dcache.ReadReq.hits::total         7793633                       # number of ReadReq hits (Count)
system.cpu.dcache.ReadReq.misses::cpu.data        45069                       # number of ReadReq misses (Count)
system.cpu.dcache.ReadReq.misses::total         45069                       # number of ReadReq misses (Count)
system.cpu.dcache.ReadReq.missLatency::cpu.data   2573506000                       # number of ReadReq miss ticks (Tick)
system.cpu.dcache.ReadReq.missLatency::total   2573506000                       # number of ReadReq miss ticks (Tick)
system.cpu.dcache.ReadReq.accesses::cpu.data      7838702                       # number of ReadReq accesses(hits+misses) (Count)
system.cpu.dcache.ReadReq.accesses::total      7838702                       # number of ReadReq accesses(hits+misses) (Count)
system.cpu.dcache.ReadReq.missRate::cpu.data     0.005750                       # miss rate for ReadReq accesses (Ratio)
system.cpu.dcache.ReadReq.missRate::total     0.005750                       # miss rate for ReadReq accesses (Ratio)
system.cpu.dcache.ReadReq.avgMissLatency::cpu.data 57101.466640                       # average ReadReq miss latency ((Tick/Count))
system.cpu.dcache.ReadReq.avgMissLatency::total 57101.466640                       # average ReadReq miss latency ((Tick/Count))
system.cpu.dcache.ReadReq.mshrHits::cpu.data        30664                       # number of ReadReq MSHR hits (Count)
system.cpu.dcache.ReadReq.mshrHits::total        30664                       # number of ReadReq MSHR hits (Count)
system.cpu.dcache.ReadReq.mshrMisses::cpu.data        14405                       # number of ReadReq MSHR misses (Count)
system.cpu.dcache.ReadReq.mshrMisses::total        14405                       # number of ReadReq MSHR misses (Count)
system.cpu.dcache.ReadReq.mshrMissLatency::cpu.data    790494500                       # number of ReadReq MSHR miss ticks (Tick)
system.cpu.dcache.ReadReq.mshrMissLatency::total    790494500                       # number of ReadReq MSHR miss ticks (Tick)
system.cpu.dcache.ReadReq.mshrMissRate::cpu.data     0.001838                       # mshr miss rate for ReadReq accesses (Ratio)
system.cpu.dcache.ReadReq.mshrMissRate::total     0.001838                       # mshr miss rate for ReadReq accesses (Ratio)
system.cpu.dcache.ReadReq.avgMshrMissLatency::cpu.data 54876.397084                       # average ReadReq mshr miss latency ((Tick/Count))
system.cpu.dcache.ReadReq.avgMshrMissLatency::total 54876.397084                       # average ReadReq mshr miss latency ((Tick/Count))
system.cpu.dcache.StoreCondReq.hits::cpu.data            9                       # number of StoreCondReq hits (Count)
system.cpu.dcache.StoreCondReq.hits::total            9                       # number of StoreCondReq hits (Count)
system.cpu.dcache.StoreCondReq.accesses::cpu.data            9                       # number of StoreCondReq accesses(hits+misses) (Count)
system.cpu.dcache.StoreCondReq.accesses::total            9                       # number of StoreCondReq accesses(hits+misses) (Count)
system.cpu.dcache.SwapReq.hits::cpu.data           16                       # number of SwapReq hits (Count)
system.cpu.dcache.SwapReq.hits::total              16                       # number of SwapReq hits (Count)
system.cpu.dcache.SwapReq.misses::cpu.data            1                       # number of SwapReq misses (Count)
system.cpu.dcache.SwapReq.misses::total             1                       # number of SwapReq misses (Count)
system.cpu.dcache.SwapReq.missLatency::cpu.data        54999                       # number of SwapReq miss ticks (Tick)
system.cpu.dcache.SwapReq.missLatency::total        54999                       # number of SwapReq miss ticks (Tick)
system.cpu.dcache.SwapReq.accesses::cpu.data           17                       # number of SwapReq accesses(hits+misses) (Count)
system.cpu.dcache.SwapReq.accesses::total           17                       # number of SwapReq accesses(hits+misses) (Count)
system.cpu.dcache.SwapReq.missRate::cpu.data     0.058824                       # miss rate for SwapReq accesses (Ratio)
system.cpu.dcache.SwapReq.missRate::total     0.058824                       # miss rate for SwapReq accesses (Ratio)
system.cpu.dcache.SwapReq.avgMissLatency::cpu.data        54999                       # average SwapReq miss latency ((Tick/Count))
system.cpu.dcache.SwapReq.avgMissLatency::total        54999                       # average SwapReq miss latency ((Tick/Count))
system.cpu.dcache.SwapReq.mshrMisses::cpu.data            1                       # number of SwapReq MSHR misses (Count)
system.cpu.dcache.SwapReq.mshrMisses::total            1                       # number of SwapReq MSHR misses (Count)
system.cpu.dcache.SwapReq.mshrMissLatency::cpu.data        53999                       # number of SwapReq MSHR miss ticks (Tick)
system.cpu.dcache.SwapReq.mshrMissLatency::total        53999                       # number of SwapReq MSHR miss ticks (Tick)
system.cpu.dcache.SwapReq.mshrMissRate::cpu.data     0.058824                       # mshr miss rate for SwapReq accesses (Ratio)
system.cpu.dcache.SwapReq.mshrMissRate::total     0.058824                       # mshr miss rate for SwapReq accesses (Ratio)
system.cpu.dcache.SwapReq.avgMshrMissLatency::cpu.data        53999                       # average SwapReq mshr miss latency ((Tick/Count))
system.cpu.dcache.SwapReq.avgMshrMissLatency::total        53999                       # average SwapReq mshr miss latency ((Tick/Count))
system.cpu.dcache.WriteReq.hits::cpu.data      5290491                       # number of WriteReq hits (Count)
system.cpu.dcache.WriteReq.hits::total        5290491                       # number of WriteReq hits (Count)
system.cpu.dcache.WriteReq.misses::cpu.data        18477                       # number of WriteReq misses (Count)
system.cpu.dcache.WriteReq.misses::total        18477                       # number of WriteReq misses (Count)
system.cpu.dcache.WriteReq.missLatency::cpu.data    918914485                       # number of WriteReq miss ticks (Tick)
system.cpu.dcache.WriteReq.missLatency::total    918914485                       # number of WriteReq miss ticks (Tick)
system.cpu.dcache.WriteReq.accesses::cpu.data      5308968                       # number of WriteReq accesses(hits+misses) (Count)
system.cpu.dcache.WriteReq.accesses::total      5308968                       # number of WriteReq accesses(hits+misses) (Count)
system.cpu.dcache.WriteReq.missRate::cpu.data     0.003480                       # miss rate for WriteReq accesses (Ratio)
system.cpu.dcache.WriteReq.missRate::total     0.003480                       # miss rate for WriteReq accesses (Ratio)
system.cpu.dcache.WriteReq.avgMissLatency::cpu.data 49732.883314                       # average WriteReq miss latency ((Tick/Count))
system.cpu.dcache.WriteReq.avgMissLatency::total 49732.883314                       # average WriteReq miss latency ((Tick/Count))
system.cpu.dcache.WriteReq.mshrHits::cpu.data        11263                       # number of WriteReq MSHR hits (Count)
system.cpu.dcache.WriteReq.mshrHits::total        11263                       # number of WriteReq MSHR hits (Count)
system.cpu.dcache.WriteReq.mshrMisses::cpu.data         7214                       # number of WriteReq MSHR misses (Count)
system.cpu.dcache.WriteReq.mshrMisses::total         7214                       # number of WriteReq MSHR misses (Count)
system.cpu.dcache.WriteReq.mshrMissLatency::cpu.data    305068503                       # number of WriteReq MSHR miss ticks (Tick)
system.cpu.dcache.WriteReq.mshrMissLatency::total    305068503                       # number of WriteReq MSHR miss ticks (Tick)
system.cpu.dcache.WriteReq.mshrMissRate::cpu.data     0.001359                       # mshr miss rate for WriteReq accesses (Ratio)
system.cpu.dcache.WriteReq.mshrMissRate::total     0.001359                       # mshr miss rate for WriteReq accesses (Ratio)
system.cpu.dcache.WriteReq.avgMshrMissLatency::cpu.data 42288.397976                       # average WriteReq mshr miss latency ((Tick/Count))
system.cpu.dcache.WriteReq.avgMshrMissLatency::total 42288.397976                       # average WriteReq mshr miss latency ((Tick/Count))
system.cpu.dcache.power_state.pwrStateResidencyTicks::UNDEFINED  13383417500                       # Cumulative time (in ticks) in various power states (Tick)
system.cpu.dcache.tags.tagsInUse          1022.762883                       # Average ticks per tags in use ((Tick/Count))
system.cpu.dcache.tags.totalRefs             13105779                       # Total number of references to valid blocks. (Count)
system.cpu.dcache.tags.sampledRefs              21621                       # Sample count of references to valid blocks. (Count)
system.cpu.dcache.tags.avgRefs             606.159706                       # Average number of references to valid blocks. ((Count/Count))
system.cpu.dcache.tags.warmupTick              202000                       # The tick when the warmup percentage was hit. (Tick)
system.cpu.dcache.tags.occupancies::cpu.data  1022.762883                       # Average occupied blocks per tick, per requestor ((Count/Tick))
system.cpu.dcache.tags.avgOccs::cpu.data     0.998792                       # Average percentage of cache occupancy ((Ratio/Tick))
system.cpu.dcache.tags.avgOccs::total        0.998792                       # Average percentage of cache occupancy ((Ratio/Tick))
system.cpu.dcache.tags.occupanciesTaskId::1024         1024                       # Occupied blocks per task id (Count)
system.cpu.dcache.tags.ageTaskId_1024::0          109                       # Occupied blocks per task id, per block age (Count)
system.cpu.dcache.tags.ageTaskId_1024::1          858                       # Occupied blocks per task id, per block age (Count)
system.cpu.dcache.tags.ageTaskId_1024::2           56                       # Occupied blocks per task id, per block age (Count)
system.cpu.dcache.tags.ageTaskId_1024::3            1                       # Occupied blocks per task id, per block age (Count)
system.cpu.dcache.tags.ratioOccsTaskId::1024            1                       # Ratio of occupied blocks and all blocks, per task id (Ratio)
system.cpu.dcache.tags.tagAccesses           26317039                       # Number of tag accesses (Count)
system.cpu.dcache.tags.dataAccesses          26317039                       # Number of data accesses (Count)
system.cpu.dcache.tags.power_state.pwrStateResidencyTicks::UNDEFINED  13383417500                       # Cumulative time (in ticks) in various power states (Tick)
system.cpu.decode.idleCycles                  6459090                       # Number of cycles decode is idle (Cycle)
system.cpu.decode.blockedCycles               8930214                       # Number of cycles decode is blocked (Cycle)
system.cpu.decode.runCycles                   8638101                       # Number of cycles decode is running (Cycle)
system.cpu.decode.unblockCycles               1447213                       # Number of cycles decode is unblocking (Cycle)
system.cpu.decode.squashCycles                 194901                       # Number of cycles decode is squashing (Cycle)
system.cpu.decode.branchResolved              5683822                       # Number of times decode resolved a branch (Count)
system.cpu.decode.branchMispred                 12415                       # Number of times decode detected a branch misprediction (Count)
system.cpu.decode.decodedInsts               55136939                       # Number of instructions handled by decode (Count)
system.cpu.decode.squashedInsts                 46238                       # Number of squashed instructions handled by decode (Count)
system.cpu.dtb_walker_cache.blockedCycles::no_mshrs            0                       # number of cycles access was blocked (Cycle)
system.cpu.dtb_walker_cache.blockedCycles::no_targets            0                       # number of cycles access was blocked (Cycle)
system.cpu.dtb_walker_cache.blockedCauses::no_mshrs            0                       # number of times access was blocked (Count)
system.cpu.dtb_walker_cache.blockedCauses::no_targets            0                       # number of times access was blocked (Count)
system.cpu.dtb_walker_cache.avgBlocked::no_mshrs          nan                       # average number of cycles each access was blocked ((Cycle/Count))
system.cpu.dtb_walker_cache.avgBlocked::no_targets          nan                       # average number of cycles each access was blocked ((Cycle/Count))
system.cpu.dtb_walker_cache.replacements            0                       # number of replacements (Count)
system.cpu.dtb_walker_cache.power_state.pwrStateResidencyTicks::UNDEFINED  13383417500                       # Cumulative time (in ticks) in various power states (Tick)
system.cpu.dtb_walker_cache.tags.tagsInUse            0                       # Average ticks per tags in use ((Tick/Count))
system.cpu.dtb_walker_cache.tags.totalRefs            0                       # Total number of references to valid blocks. (Count)
system.cpu.dtb_walker_cache.tags.sampledRefs            0                       # Sample count of references to valid blocks. (Count)
system.cpu.dtb_walker_cache.tags.avgRefs          nan                       # Average number of references to valid blocks. ((Count/Count))
system.cpu.dtb_walker_cache.tags.warmupTick            0                       # The tick when the warmup percentage was hit. (Tick)
system.cpu.dtb_walker_cache.tags.tagAccesses            0                       # Number of tag accesses (Count)
system.cpu.dtb_walker_cache.tags.dataAccesses            0                       # Number of data accesses (Count)
system.cpu.dtb_walker_cache.tags.power_state.pwrStateResidencyTicks::UNDEFINED  13383417500                       # Cumulative time (in ticks) in various power states (Tick)
system.cpu.fetch.icacheStallCycles            7752154                       # Number of cycles fetch is stalled on an Icache miss (Cycle)
system.cpu.fetch.insts                       56949506                       # Number of instructions fetch has processed (Count)
system.cpu.fetch.branches                    10353053                       # Number of branches that fetch encountered (Count)
system.cpu.fetch.predictedBranches            6480281                       # Number of branches that fetch has predicted taken (Count)
system.cpu.fetch.cycles                      17709736                       # Number of cycles fetch has run and was not squashing or blocked (Cycle)
system.cpu.fetch.squashCycles                  414606                       # Number of cycles fetch has spent squashing (Cycle)
system.cpu.fetch.miscStallCycles                  199                       # Number of cycles fetch has spent waiting on interrupts, or bad addresses, or out of MSHRs (Cycle)
system.cpu.fetch.icacheWaitRetryStallCycles          127                       # Number of stall cycles due to full MSHR (Cycle)
system.cpu.fetch.cacheLines                   6213006                       # Number of cache lines fetched (Count)
system.cpu.fetch.icacheSquashes                 83330                       # Number of outstanding Icache misses that were squashed (Count)
system.cpu.fetch.nisnDist::samples           25669519                       # Number of instructions fetched each cycle (Total) (Count)
system.cpu.fetch.nisnDist::mean              2.218568                       # Number of instructions fetched each cycle (Total) (Count)
system.cpu.fetch.nisnDist::stdev             2.982007                       # Number of instructions fetched each cycle (Total) (Count)
system.cpu.fetch.nisnDist::underflows               0      0.00%      0.00% # Number of instructions fetched each cycle (Total) (Count)
system.cpu.fetch.nisnDist::0                 14170918     55.21%     55.21% # Number of instructions fetched each cycle (Total) (Count)
system.cpu.fetch.nisnDist::1                  1047260      4.08%     59.29% # Number of instructions fetched each cycle (Total) (Count)
system.cpu.fetch.nisnDist::2                  1734355      6.76%     66.04% # Number of instructions fetched each cycle (Total) (Count)
system.cpu.fetch.nisnDist::3                  1125968      4.39%     70.43% # Number of instructions fetched each cycle (Total) (Count)
system.cpu.fetch.nisnDist::4                  1514511      5.90%     76.33% # Number of instructions fetched each cycle (Total) (Count)
system.cpu.fetch.nisnDist::5                   989723      3.86%     80.18% # Number of instructions fetched each cycle (Total) (Count)
system.cpu.fetch.nisnDist::6                   819909      3.19%     83.38% # Number of instructions fetched each cycle (Total) (Count)
system.cpu.fetch.nisnDist::7                  1005404      3.92%     87.29% # Number of instructions fetched each cycle (Total) (Count)
system.cpu.fetch.nisnDist::8                  3261471     12.71%    100.00% # Number of instructions fetched each cycle (Total) (Count)
system.cpu.fetch.nisnDist::overflows                0      0.00%    100.00% # Number of instructions fetched each cycle (Total) (Count)
system.cpu.fetch.nisnDist::min_value                0                       # Number of instructions fetched each cycle (Total) (Count)
system.cpu.fetch.nisnDist::max_value                8                       # Number of instructions fetched each cycle (Total) (Count)
system.cpu.fetch.nisnDist::total             25669519                       # Number of instructions fetched each cycle (Total) (Count)
system.cpu.fetch.branchRate                  0.386787                       # Number of branch fetches per cycle (Ratio)
system.cpu.fetch.rate                        2.127614                       # Number of inst fetches per cycle ((Count/Cycle))
system.cpu.icache.demandHits::cpu.inst        6152345                       # number of demand (read+write) hits (Count)
system.cpu.icache.demandHits::total           6152345                       # number of demand (read+write) hits (Count)
system.cpu.icache.overallHits::cpu.inst       6152345                       # number of overall hits (Count)
system.cpu.icache.overallHits::total          6152345                       # number of overall hits (Count)
system.cpu.icache.demandMisses::cpu.inst        60658                       # number of demand (read+write) misses (Count)
system.cpu.icache.demandMisses::total           60658                       # number of demand (read+write) misses (Count)
system.cpu.icache.overallMisses::cpu.inst        60658                       # number of overall misses (Count)
system.cpu.icache.overallMisses::total          60658                       # number of overall misses (Count)
system.cpu.icache.demandMissLatency::cpu.inst   1425847997                       # number of demand (read+write) miss ticks (Tick)
system.cpu.icache.demandMissLatency::total   1425847997                       # number of demand (read+write) miss ticks (Tick)
system.cpu.icache.overallMissLatency::cpu.inst   1425847997                       # number of overall miss ticks (Tick)
system.cpu.icache.overallMissLatency::total   1425847997                       # number of overall miss ticks (Tick)
system.cpu.icache.demandAccesses::cpu.inst      6213003                       # number of demand (read+write) accesses (Count)
system.cpu.icache.demandAccesses::total       6213003                       # number of demand (read+write) accesses (Count)
system.cpu.icache.overallAccesses::cpu.inst      6213003                       # number of overall (read+write) accesses (Count)
system.cpu.icache.overallAccesses::total      6213003                       # number of overall (read+write) accesses (Count)
system.cpu.icache.demandMissRate::cpu.inst     0.009763                       # miss rate for demand accesses (Ratio)
system.cpu.icache.demandMissRate::total      0.009763                       # miss rate for demand accesses (Ratio)
system.cpu.icache.overallMissRate::cpu.inst     0.009763                       # miss rate for overall accesses (Ratio)
system.cpu.icache.overallMissRate::total     0.009763                       # miss rate for overall accesses (Ratio)
system.cpu.icache.demandAvgMissLatency::cpu.inst 23506.347011                       # average overall miss latency ((Cycle/Count))
system.cpu.icache.demandAvgMissLatency::total 23506.347011                       # average overall miss latency ((Cycle/Count))
system.cpu.icache.overallAvgMissLatency::cpu.inst 23506.347011                       # average overall miss latency ((Cycle/Count))
system.cpu.icache.overallAvgMissLatency::total 23506.347011                       # average overall miss latency ((Cycle/Count))
system.cpu.icache.blockedCycles::no_mshrs         1470                       # number of cycles access was blocked (Cycle)
system.cpu.icache.blockedCycles::no_targets            0                       # number of cycles access was blocked (Cycle)
system.cpu.icache.blockedCauses::no_mshrs           28                       # number of times access was blocked (Count)
system.cpu.icache.blockedCauses::no_targets            0                       # number of times access was blocked (Count)
system.cpu.icache.avgBlocked::no_mshrs      52.500000                       # average number of cycles each access was blocked ((Cycle/Count))
system.cpu.icache.avgBlocked::no_targets          nan                       # average number of cycles each access was blocked ((Cycle/Count))
system.cpu.icache.writebacks::writebacks        57728                       # number of writebacks (Count)
system.cpu.icache.writebacks::total             57728                       # number of writebacks (Count)
system.cpu.icache.demandMshrHits::cpu.inst         2481                       # number of demand (read+write) MSHR hits (Count)
system.cpu.icache.demandMshrHits::total          2481                       # number of demand (read+write) MSHR hits (Count)
system.cpu.icache.overallMshrHits::cpu.inst         2481                       # number of overall MSHR hits (Count)
system.cpu.icache.overallMshrHits::total         2481                       # number of overall MSHR hits (Count)
system.cpu.icache.demandMshrMisses::cpu.inst        58177                       # number of demand (read+write) MSHR misses (Count)
system.cpu.icache.demandMshrMisses::total        58177                       # number of demand (read+write) MSHR misses (Count)
system.cpu.icache.overallMshrMisses::cpu.inst        58177                       # number of overall MSHR misses (Count)
system.cpu.icache.overallMshrMisses::total        58177                       # number of overall MSHR misses (Count)
system.cpu.icache.demandMshrMissLatency::cpu.inst   1324429498                       # number of demand (read+write) MSHR miss ticks (Tick)
system.cpu.icache.demandMshrMissLatency::total   1324429498                       # number of demand (read+write) MSHR miss ticks (Tick)
system.cpu.icache.overallMshrMissLatency::cpu.inst   1324429498                       # number of overall MSHR miss ticks (Tick)
system.cpu.icache.overallMshrMissLatency::total   1324429498                       # number of overall MSHR miss ticks (Tick)
system.cpu.icache.demandMshrMissRate::cpu.inst     0.009364                       # mshr miss ratio for demand accesses (Ratio)
system.cpu.icache.demandMshrMissRate::total     0.009364                       # mshr miss ratio for demand accesses (Ratio)
system.cpu.icache.overallMshrMissRate::cpu.inst     0.009364                       # mshr miss ratio for overall accesses (Ratio)
system.cpu.icache.overallMshrMissRate::total     0.009364                       # mshr miss ratio for overall accesses (Ratio)
system.cpu.icache.demandAvgMshrMissLatency::cpu.inst 22765.517266                       # average overall mshr miss latency ((Cycle/Count))
system.cpu.icache.demandAvgMshrMissLatency::total 22765.517266                       # average overall mshr miss latency ((Cycle/Count))
system.cpu.icache.overallAvgMshrMissLatency::cpu.inst 22765.517266                       # average overall mshr miss latency ((Cycle/Count))
system.cpu.icache.overallAvgMshrMissLatency::total 22765.517266                       # average overall mshr miss latency ((Cycle/Count))
system.cpu.icache.replacements                  57728                       # number of replacements (Count)
system.cpu.icache.ReadReq.hits::cpu.inst      6152345                       # number of ReadReq hits (Count)
system.cpu.icache.ReadReq.hits::total         6152345                       # number of ReadReq hits (Count)
system.cpu.icache.ReadReq.misses::cpu.inst        60658                       # number of ReadReq misses (Count)
system.cpu.icache.ReadReq.misses::total         60658                       # number of ReadReq misses (Count)
system.cpu.icache.ReadReq.missLatency::cpu.inst   1425847997                       # number of ReadReq miss ticks (Tick)
system.cpu.icache.ReadReq.missLatency::total   1425847997                       # number of ReadReq miss ticks (Tick)
system.cpu.icache.ReadReq.accesses::cpu.inst      6213003                       # number of ReadReq accesses(hits+misses) (Count)
system.cpu.icache.ReadReq.accesses::total      6213003                       # number of ReadReq accesses(hits+misses) (Count)
system.cpu.icache.ReadReq.missRate::cpu.inst     0.009763                       # miss rate for ReadReq accesses (Ratio)
system.cpu.icache.ReadReq.missRate::total     0.009763                       # miss rate for ReadReq accesses (Ratio)
system.cpu.icache.ReadReq.avgMissLatency::cpu.inst 23506.347011                       # average ReadReq miss latency ((Tick/Count))
system.cpu.icache.ReadReq.avgMissLatency::total 23506.347011                       # average ReadReq miss latency ((Tick/Count))
system.cpu.icache.ReadReq.mshrHits::cpu.inst         2481                       # number of ReadReq MSHR hits (Count)
system.cpu.icache.ReadReq.mshrHits::total         2481                       # number of ReadReq MSHR hits (Count)
system.cpu.icache.ReadReq.mshrMisses::cpu.inst        58177                       # number of ReadReq MSHR misses (Count)
system.cpu.icache.ReadReq.mshrMisses::total        58177                       # number of ReadReq MSHR misses (Count)
system.cpu.icache.ReadReq.mshrMissLatency::cpu.inst   1324429498                       # number of ReadReq MSHR miss ticks (Tick)
system.cpu.icache.ReadReq.mshrMissLatency::total   1324429498                       # number of ReadReq MSHR miss ticks (Tick)
system.cpu.icache.ReadReq.mshrMissRate::cpu.inst     0.009364                       # mshr miss rate for ReadReq accesses (Ratio)
system.cpu.icache.ReadReq.mshrMissRate::total     0.009364                       # mshr miss rate for ReadReq accesses (Ratio)
system.cpu.icache.ReadReq.avgMshrMissLatency::cpu.inst 22765.517266                       # average ReadReq mshr miss latency ((Tick/Count))
system.cpu.icache.ReadReq.avgMshrMissLatency::total 22765.517266                       # average ReadReq mshr miss latency ((Tick/Count))
system.cpu.icache.power_state.pwrStateResidencyTicks::UNDEFINED  13383417500                       # Cumulative time (in ticks) in various power states (Tick)
system.cpu.icache.tags.tagsInUse           379.523614                       # Average ticks per tags in use ((Tick/Count))
system.cpu.icache.tags.totalRefs              6210520                       # Total number of references to valid blocks. (Count)
system.cpu.icache.tags.sampledRefs              58175                       # Sample count of references to valid blocks. (Count)
system.cpu.icache.tags.avgRefs             106.755823                       # Average number of references to valid blocks. ((Count/Count))
system.cpu.icache.tags.warmupTick               77000                       # The tick when the warmup percentage was hit. (Tick)
system.cpu.icache.tags.occupancies::cpu.inst   379.523614                       # Average occupied blocks per tick, per requestor ((Count/Tick))
system.cpu.icache.tags.avgOccs::cpu.inst     0.741257                       # Average percentage of cache occupancy ((Ratio/Tick))
system.cpu.icache.tags.avgOccs::total        0.741257                       # Average percentage of cache occupancy ((Ratio/Tick))
system.cpu.icache.tags.occupanciesTaskId::1024          447                       # Occupied blocks per task id (Count)
system.cpu.icache.tags.ageTaskId_1024::0          104                       # Occupied blocks per task id, per block age (Count)
system.cpu.icache.tags.ageTaskId_1024::1           24                       # Occupied blocks per task id, per block age (Count)
system.cpu.icache.tags.ageTaskId_1024::2            1                       # Occupied blocks per task id, per block age (Count)
system.cpu.icache.tags.ageTaskId_1024::3          148                       # Occupied blocks per task id, per block age (Count)
system.cpu.icache.tags.ageTaskId_1024::4          170                       # Occupied blocks per task id, per block age (Count)
system.cpu.icache.tags.ratioOccsTaskId::1024     0.873047                       # Ratio of occupied blocks and all blocks, per task id (Ratio)
system.cpu.icache.tags.tagAccesses           12484181                       # Number of tag accesses (Count)
system.cpu.icache.tags.dataAccesses          12484181                       # Number of data accesses (Count)
system.cpu.icache.tags.power_state.pwrStateResidencyTicks::UNDEFINED  13383417500                       # Cumulative time (in ticks) in various power states (Tick)
system.cpu.iew.idleCycles                           0                       # Number of cycles IEW is idle (Cycle)
system.cpu.iew.squashCycles                    194901                       # Number of cycles IEW is squashing (Cycle)
system.cpu.iew.blockCycles                     629954                       # Number of cycles IEW is blocking (Cycle)
system.cpu.iew.unblockCycles                  1124597                       # Number of cycles IEW is unblocking (Cycle)
system.cpu.iew.dispatchedInsts               53151056                       # Number of instructions dispatched to IQ (Count)
system.cpu.iew.dispSquashedInsts               142450                       # Number of squashed instructions skipped by dispatch (Count)
system.cpu.iew.dispLoadInsts                 11809889                       # Number of dispatched load instructions (Count)
system.cpu.iew.dispStoreInsts                 5738873                       # Number of dispatched store instructions (Count)
system.cpu.iew.dispNonSpecInsts                 33402                       # Number of dispatched non-speculative instructions (Count)
system.cpu.iew.iqFullEvents                    189464                       # Number of times the IQ has become full, causing a stall (Count)
system.cpu.iew.lsqFullEvents                   932323                       # Number of times the LSQ has become full, causing a stall (Count)
system.cpu.iew.memOrderViolationEvents          13069                       # Number of memory order violations (Count)
system.cpu.iew.predictedTakenIncorrect          85572                       # Number of branches that were predicted taken incorrectly (Count)
system.cpu.iew.predictedNotTakenIncorrect       115633                       # Number of branches that were predicted not taken incorrectly (Count)
system.cpu.iew.branchMispredicts               201205                       # Number of branch mispredicts detected at execute (Count)
[...]
system.mem_ctrls.dram.bwRead::total         381161837                       # Total read bandwidth from this memory ((Byte/Second))
system.mem_ctrls.dram.bwInstRead::cpu.inst    278195013                       # Instruction read bandwidth from this memory ((Byte/Second))
system.mem_ctrls.dram.bwInstRead::total     278195013                       # Instruction read bandwidth from this memory ((Byte/Second))
system.mem_ctrls.dram.bwWrite::writebacks     52157679                       # Write bandwidth from this memory ((Byte/Second))
system.mem_ctrls.dram.bwWrite::total         52157679                       # Write bandwidth from this memory ((Byte/Second))
system.mem_ctrls.dram.bwTotal::writebacks     52157679                       # Total bandwidth to/from this memory ((Byte/Second))
system.mem_ctrls.dram.bwTotal::cpu.inst     278195013                       # Total bandwidth to/from this memory ((Byte/Second))
system.mem_ctrls.dram.bwTotal::cpu.data     102966824                       # Total bandwidth to/from this memory ((Byte/Second))
system.mem_ctrls.dram.bwTotal::total        433319516                       # Total bandwidth to/from this memory ((Byte/Second))
system.mem_ctrls.dram.readBursts                17304                       # Number of DRAM read bursts (Count)
system.mem_ctrls.dram.writeBursts                8139                       # Number of DRAM write bursts (Count)
system.mem_ctrls.dram.perBankRdBursts::0          788                       # Per bank write bursts (Count)
system.mem_ctrls.dram.perBankRdBursts::1          955                       # Per bank write bursts (Count)
system.mem_ctrls.dram.perBankRdBursts::2          815                       # Per bank write bursts (Count)
system.mem_ctrls.dram.perBankRdBursts::3          827                       # Per bank write bursts (Count)
system.mem_ctrls.dram.perBankRdBursts::4          653                       # Per bank write bursts (Count)
system.mem_ctrls.dram.perBankRdBursts::5          611                       # Per bank write bursts (Count)
system.mem_ctrls.dram.perBankRdBursts::6          687                       # Per bank write bursts (Count)
system.mem_ctrls.dram.perBankRdBursts::7         1551                       # Per bank write bursts (Count)
system.mem_ctrls.dram.perBankRdBursts::8         1443                       # Per bank write bursts (Count)
system.mem_ctrls.dram.perBankRdBursts::9         1490                       # Per bank write bursts (Count)
system.mem_ctrls.dram.perBankRdBursts::10         1595                       # Per bank write bursts (Count)
system.mem_ctrls.dram.perBankRdBursts::11         1808                       # Per bank write bursts (Count)
system.mem_ctrls.dram.perBankRdBursts::12         1716                       # Per bank write bursts (Count)
system.mem_ctrls.dram.perBankRdBursts::13          958                       # Per bank write bursts (Count)
system.mem_ctrls.dram.perBankRdBursts::14          607                       # Per bank write bursts (Count)
system.mem_ctrls.dram.perBankRdBursts::15          800                       # Per bank write bursts (Count)
system.mem_ctrls.dram.perBankWrBursts::0          557                       # Per bank write bursts (Count)
system.mem_ctrls.dram.perBankWrBursts::1          628                       # Per bank write bursts (Count)
system.mem_ctrls.dram.perBankWrBursts::2          500                       # Per bank write bursts (Count)
system.mem_ctrls.dram.perBankWrBursts::3          464                       # Per bank write bursts (Count)
system.mem_ctrls.dram.perBankWrBursts::4          372                       # Per bank write bursts (Count)
system.mem_ctrls.dram.perBankWrBursts::5          369                       # Per bank write bursts (Count)
system.mem_ctrls.dram.perBankWrBursts::6          430                       # Per bank write bursts (Count)
system.mem_ctrls.dram.perBankWrBursts::7          546                       # Per bank write bursts (Count)
system.mem_ctrls.dram.perBankWrBursts::8          528                       # Per bank write bursts (Count)
system.mem_ctrls.dram.perBankWrBursts::9          519                       # Per bank write bursts (Count)
system.mem_ctrls.dram.perBankWrBursts::10          534                       # Per bank write bursts (Count)
system.mem_ctrls.dram.perBankWrBursts::11          535                       # Per bank write bursts (Count)
system.mem_ctrls.dram.perBankWrBursts::12          482                       # Per bank write bursts (Count)
system.mem_ctrls.dram.perBankWrBursts::13          552                       # Per bank write bursts (Count)
system.mem_ctrls.dram.perBankWrBursts::14          524                       # Per bank write bursts (Count)
system.mem_ctrls.dram.perBankWrBursts::15          599                       # Per bank write bursts (Count)
system.mem_ctrls.dram.totQLat               169011000                       # Total ticks spent queuing (Tick)
system.mem_ctrls.dram.totBusLat              86520000                       # Total ticks spent in databus transfers (Tick)
system.mem_ctrls.dram.totMemAccLat          493461000                       # Total ticks spent from burst creation until serviced by the DRAM (Tick)
system.mem_ctrls.dram.avgQLat                 9767.16                       # Average queueing delay per DRAM burst ((Tick/Count))
system.mem_ctrls.dram.avgBusLat               5000.00                       # Average bus latency per DRAM burst ((Tick/Count))
system.mem_ctrls.dram.avgMemAccLat           28517.16                       # Average memory access latency per DRAM burst ((Tick/Count))
system.mem_ctrls.dram.readRowHits               13712                       # Number of row buffer hits during reads (Count)
system.mem_ctrls.dram.writeRowHits               7203                       # Number of row buffer hits during writes (Count)
system.mem_ctrls.dram.readRowHitRate            79.24                       # Row buffer hit rate for reads (Ratio)
system.mem_ctrls.dram.writeRowHitRate           88.50                       # Row buffer hit rate for writes (Ratio)
system.mem_ctrls.dram.bytesPerActivate::samples         4514                       # Bytes accessed per row activation (Byte)
system.mem_ctrls.dram.bytesPerActivate::mean   359.797962                       # Bytes accessed per row activation (Byte)
system.mem_ctrls.dram.bytesPerActivate::gmean   225.722198                       # Bytes accessed per row activation (Byte)
system.mem_ctrls.dram.bytesPerActivate::stdev   316.208855                       # Bytes accessed per row activation (Byte)
system.mem_ctrls.dram.bytesPerActivate::0-127         1410     31.24%     31.24% # Bytes accessed per row activation (Byte)
system.mem_ctrls.dram.bytesPerActivate::128-255          883     19.56%     50.80% # Bytes accessed per row activation (Byte)
system.mem_ctrls.dram.bytesPerActivate::256-383          312      6.91%     57.71% # Bytes accessed per row activation (Byte)
system.mem_ctrls.dram.bytesPerActivate::384-511          243      5.38%     63.09% # Bytes accessed per row activation (Byte)
system.mem_ctrls.dram.bytesPerActivate::512-639          772     17.10%     80.19% # Bytes accessed per row activation (Byte)
system.mem_ctrls.dram.bytesPerActivate::640-767          245      5.43%     85.62% # Bytes accessed per row activation (Byte)
system.mem_ctrls.dram.bytesPerActivate::768-895          144      3.19%     88.81% # Bytes accessed per row activation (Byte)
system.mem_ctrls.dram.bytesPerActivate::896-1023           63      1.40%     90.21% # Bytes accessed per row activation (Byte)
system.mem_ctrls.dram.bytesPerActivate::1024-1151          442      9.79%    100.00% # Bytes accessed per row activation (Byte)
system.mem_ctrls.dram.bytesPerActivate::total         4514                       # Bytes accessed per row activation (Byte)
system.mem_ctrls.dram.bytesRead               1107456                       # Total bytes read (Byte)
system.mem_ctrls.dram.bytesWritten             520896                       # Total bytes written (Byte)
system.mem_ctrls.dram.avgRdBW               82.748371                       # Average DRAM read bandwidth in MiBytes/s ((Byte/Second))
system.mem_ctrls.dram.avgWrBW               38.921001                       # Average DRAM write bandwidth in MiBytes/s ((Byte/Second))
system.mem_ctrls.dram.peakBW                 12800.00                       # Theoretical peak bandwidth in MiByte/s ((Byte/Second))
system.mem_ctrls.dram.busUtil                    0.95                       # Data bus utilization in percentage (Ratio)
system.mem_ctrls.dram.busUtilRead                0.65                       # Data bus utilization in percentage for reads (Ratio)
system.mem_ctrls.dram.busUtilWrite               0.30                       # Data bus utilization in percentage for writes (Ratio)
system.mem_ctrls.dram.pageHitRate               82.20                       # Row buffer hit rate, read and write combined (Ratio)
system.mem_ctrls.dram.power_state.pwrStateResidencyTicks::UNDEFINED  13383417500                       # Cumulative time (in ticks) in various power states (Tick)
system.mem_ctrls.dram.rank0.actEnergy        15579480                       # Energy for activate commands per rank (pJ) (Joule)
system.mem_ctrls.dram.rank0.preEnergy         8250330                       # Energy for precharge commands per rank (pJ) (Joule)
system.mem_ctrls.dram.rank0.readEnergy       49173180                       # Energy for read commands per rank (pJ) (Joule)
system.mem_ctrls.dram.rank0.writeEnergy      20180520                       # Energy for write commands per rank (pJ) (Joule)
system.mem_ctrls.dram.rank0.refreshEnergy 1055951520.000000                       # Energy for refresh commands per rank (pJ) (Joule)
system.mem_ctrls.dram.rank0.actBackEnergy   3198016350                       # Energy for active background per rank (pJ) (Joule)
system.mem_ctrls.dram.rank0.preBackEnergy   2446165920                       # Energy for precharge background per rank (pJ) (Joule)
system.mem_ctrls.dram.rank0.actPowerDownEnergy            0                       # Energy for active power-down per rank (pJ) (Joule)
system.mem_ctrls.dram.rank0.prePowerDownEnergy            0                       # Energy for precharge power-down per rank (pJ) (Joule)
system.mem_ctrls.dram.rank0.selfRefreshEnergy            0                       # Energy for self refresh per rank (pJ) (Joule)
system.mem_ctrls.dram.rank0.totalEnergy    6793317300                       # Total energy per rank (pJ) (Joule)
system.mem_ctrls.dram.rank0.averagePower   507.592123                       # Core power per rank (mW) (Watt)
system.mem_ctrls.dram.rank0.totalIdleTime            0                       # Total Idle time Per DRAM Rank (Tick)
system.mem_ctrls.dram.rank0.pwrStateTime::IDLE   6327153250                       # Time in different power states (Tick)
system.mem_ctrls.dram.rank0.pwrStateTime::REF    446680000                       # Time in different power states (Tick)
system.mem_ctrls.dram.rank0.pwrStateTime::SREF            0                       # Time in different power states (Tick)
system.mem_ctrls.dram.rank0.pwrStateTime::PRE_PDN            0                       # Time in different power states (Tick)
system.mem_ctrls.dram.rank0.pwrStateTime::ACT   6609584250                       # Time in different power states (Tick)
system.mem_ctrls.dram.rank0.pwrStateTime::ACT_PDN            0                       # Time in different power states (Tick)
system.mem_ctrls.dram.rank1.actEnergy        16750440                       # Energy for activate commands per rank (pJ) (Joule)
system.mem_ctrls.dram.rank1.preEnergy         8880300                       # Energy for precharge commands per rank (pJ) (Joule)
system.mem_ctrls.dram.rank1.readEnergy       74377380                       # Energy for read commands per rank (pJ) (Joule)
system.mem_ctrls.dram.rank1.writeEnergy      22305060                       # Energy for write commands per rank (pJ) (Joule)
system.mem_ctrls.dram.rank1.refreshEnergy 1055951520.000000                       # Energy for refresh commands per rank (pJ) (Joule)
system.mem_ctrls.dram.rank1.actBackEnergy   3296436540                       # Energy for active background per rank (pJ) (Joule)
system.mem_ctrls.dram.rank1.preBackEnergy   2363285760                       # Energy for precharge background per rank (pJ) (Joule)
system.mem_ctrls.dram.rank1.actPowerDownEnergy            0                       # Energy for active power-down per rank (pJ) (Joule)
system.mem_ctrls.dram.rank1.prePowerDownEnergy            0                       # Energy for precharge power-down per rank (pJ) (Joule)
system.mem_ctrls.dram.rank1.selfRefreshEnergy            0                       # Energy for self refresh per rank (pJ) (Joule)
system.mem_ctrls.dram.rank1.totalEnergy    6837987000                       # Total energy per rank (pJ) (Joule)
system.mem_ctrls.dram.rank1.averagePower   510.929813                       # Core power per rank (mW) (Watt)
system.mem_ctrls.dram.rank1.totalIdleTime            0                       # Total Idle time Per DRAM Rank (Tick)
system.mem_ctrls.dram.rank1.pwrStateTime::IDLE   6112657750                       # Time in different power states (Tick)
system.mem_ctrls.dram.rank1.pwrStateTime::REF    446680000                       # Time in different power states (Tick)
system.mem_ctrls.dram.rank1.pwrStateTime::SREF            0                       # Time in different power states (Tick)
system.mem_ctrls.dram.rank1.pwrStateTime::PRE_PDN            0                       # Time in different power states (Tick)
system.mem_ctrls.dram.rank1.pwrStateTime::ACT   6824079750                       # Time in different power states (Tick)
system.mem_ctrls.dram.rank1.pwrStateTime::ACT_PDN            0                       # Time in different power states (Tick)
system.mem_ctrls.power_state.pwrStateResidencyTicks::UNDEFINED  13383417500                       # Cumulative time (in ticks) in various power states (Tick)
system.membus.transDist::ReadResp               72581                       # Transaction distribution (Count)
system.membus.transDist::WritebackDirty         10907                       # Transaction distribution (Count)
system.membus.transDist::WritebackClean         57728                       # Transaction distribution (Count)
system.membus.transDist::CleanEvict              9690                       # Transaction distribution (Count)
system.membus.transDist::ReadExReq               7125                       # Transaction distribution (Count)
system.membus.transDist::ReadExResp              7125                       # Transaction distribution (Count)
system.membus.transDist::ReadCleanReq           58177                       # Transaction distribution (Count)
system.membus.transDist::ReadSharedReq          14407                       # Transaction distribution (Count)
system.membus.transDist::InvalidateReq             90                       # Transaction distribution (Count)
system.membus.pktCount_system.cpu.icache.mem_side_port::system.mem_ctrls.port       174080                       # Packet count per connected requestor and responder (Count)
system.membus.pktCount_system.cpu.dcache.mem_side_port::system.mem_ctrls.port        63750                       # Packet count per connected requestor and responder (Count)
system.membus.pktCount::total                  237830                       # Packet count per connected requestor and responder (Count)
system.membus.pktSize_system.cpu.icache.mem_side_port::system.mem_ctrls.port      7417792                       # Cumulative packet size per connected requestor and responder (Byte)
system.membus.pktSize_system.cpu.dcache.mem_side_port::system.mem_ctrls.port      2076032                       # Cumulative packet size per connected requestor and responder (Byte)
system.membus.pktSize::total                  9493824                       # Cumulative packet size per connected requestor and responder (Byte)
system.membus.snoops                                0                       # Total snoops (Count)
system.membus.snoopTraffic                          0                       # Total snoop traffic (Byte)
system.membus.snoopFanout::samples              79799                       # Request fanout histogram (Count)
system.membus.snoopFanout::mean              0.000025                       # Request fanout histogram (Count)
system.membus.snoopFanout::stdev             0.005006                       # Request fanout histogram (Count)
system.membus.snoopFanout::underflows               0      0.00%      0.00% # Request fanout histogram (Count)
system.membus.snoopFanout::0                    79797    100.00%    100.00% # Request fanout histogram (Count)
system.membus.snoopFanout::1                        2      0.00%    100.00% # Request fanout histogram (Count)
system.membus.snoopFanout::2                        0      0.00%    100.00% # Request fanout histogram (Count)
system.membus.snoopFanout::3                        0      0.00%    100.00% # Request fanout histogram (Count)
system.membus.snoopFanout::4                        0      0.00%    100.00% # Request fanout histogram (Count)
system.membus.snoopFanout::overflows                0      0.00%    100.00% # Request fanout histogram (Count)
system.membus.snoopFanout::min_value                0                       # Request fanout histogram (Count)
system.membus.snoopFanout::max_value                1                       # Request fanout histogram (Count)
system.membus.snoopFanout::total                79799                       # Request fanout histogram (Count)
system.membus.power_state.pwrStateResidencyTicks::UNDEFINED  13383417500                       # Cumulative time (in ticks) in various power states (Tick)
system.membus.reqLayer0.occupancy           447621500                       # Layer occupancy (ticks) (Tick)
system.membus.reqLayer0.utilization               0.0                       # Layer utilization (Ratio)
system.membus.respLayer1.occupancy          291123500                       # Layer occupancy (ticks) (Tick)
system.membus.respLayer1.utilization              0.0                       # Layer utilization (Ratio)
system.membus.respLayer2.occupancy          112544750                       # Layer occupancy (ticks) (Tick)
system.membus.respLayer2.utilization              0.0                       # Layer utilization (Ratio)
system.membus.snoop_filter.totRequests         158124                       # Total number of requests made to the snoop filter. (Count)
system.membus.snoop_filter.hitSingleRequests        78327                       # Number of requests hitting in the snoop filter with a single holder of the requested data. (Count)
system.membus.snoop_filter.hitMultiRequests            0                       # Number of requests hitting in the snoop filter with multiple (>1) holders of the requested data. (Count)
system.membus.snoop_filter.totSnoops                0                       # Total number of snoops made to the snoop filter. (Count)
system.membus.snoop_filter.hitSingleSnoops            0                       # Number of snoops hitting in the snoop filter with a single holder of the requested data. (Count)
system.membus.snoop_filter.hitMultiSnoops            0                       # Number of snoops hitting in the snoop filter with multiple (>1) holders of the requested data. (Count)
system.voltage_domain.voltage                       1                       # Voltage in Volts (Volt)
system.workload.inst.arm                            0                       # number of arm instructions executed (Count)
system.workload.inst.quiesce                        0                       # number of quiesce instructions executed (Count)

---------- End Simulation Statistics   ----------
