
---------- Begin Simulation Statistics ----------
simSeconds                                   0.012961                       # Number of seconds simulated (Second)
simTicks                                  12960560500                       # Number of ticks simulated (Tick)
finalTick                                 12960560500                       # Number of ticks from beginning of simulation (restored from checkpoints and never reset) (Tick)
simFreq                                  1000000000000                       # The number of ticks per simulated second ((Tick/Second))
hostSeconds                                     63.83                       # Real time elapsed on the host (Second)
hostTickRate                                203048225                       # The number of ticks simulated per host second (ticks/s) ((Tick/Second))
hostMemory                                     641040                       # Number of bytes of host memory used (Byte)
simInsts                                     48982758                       # Number of instructions simulated (Count)
simOps                                       48982773                       # Number of ops (including micro ops) simulated (Count)
hostInstRate                                   767394                       # Simulator instruction rate (inst/s) ((Count/Second))
hostOpRate                                     767394                       # Simulator op (including micro ops) rate (op/s) ((Count/Second))
system.clk_domain.clock                          1000                       # Clock period in ticks (Tick)
system.cpu.numCycles                         25921122                       # Number of cpu cycles simulated (Cycle)
system.cpu.numWorkItemsStarted                      0                       # Number of work items this cpu started (Count)
system.cpu.numWorkItemsCompleted                    0                       # Number of work items this cpu completed (Count)
system.cpu.instsAdded                        53113954                       # Number of instructions added to the IQ (excludes non-spec) (Count)
system.cpu.nonSpecInstsAdded                    33441                       # Number of non-speculative instructions added to the IQ (Count)
system.cpu.instsIssued                       51914927                       # Number of instructions issued (Count)
system.cpu.squashedInstsIssued                  67514                       # Number of squashed instructions issued (Count)
system.cpu.squashedInstsExamined              4164621                       # Number of squashed instructions iterated over during squash; mainly for profiling (Count)
system.cpu.squashedOperandsExamined           2199059                       # Number of squashed operands that are examined and possibly removed from graph (Count)
system.cpu.squashedNonSpecRemoved                4693                       # Number of squashed non-spec instructions that were removed (Count)
system.cpu.numIssuedDist::samples            24821853                       # Number of insts issued each cycle (Count)
system.cpu.numIssuedDist::mean               2.091501                       # Number of insts issued each cycle (Count)
system.cpu.numIssuedDist::stdev              2.051169                       # Number of insts issued each cycle (Count)
system.cpu.numIssuedDist::underflows                0      0.00%      0.00% # Number of insts issued each cycle (Count)
system.cpu.numIssuedDist::0                   7140307     28.77%     28.77% # Number of insts issued each cycle (Count)
system.cpu.numIssuedDist::1                   4888502     19.69%     48.46% # Number of insts issued each cycle (Count)
system.cpu.numIssuedDist::2                   4013430     16.17%     64.63% # Number of insts issued each cycle (Count)
system.cpu.numIssuedDist::3                   2927094     11.79%     76.42% # Number of insts issued each cycle (Count)
system.cpu.numIssuedDist::4                   2474648      9.97%     86.39% # Number of insts issued each cycle (Count)
system.cpu.numIssuedDist::5                   1447500      5.83%     92.22% # Number of insts issued each cycle (Count)
system.cpu.numIssuedDist::6                    906507      3.65%     95.88% # Number of insts issued each cycle (Count)
system.cpu.numIssuedDist::7                    547771      2.21%     98.08% # Number of insts issued each cycle (Count)
system.cpu.numIssuedDist::8                    476094      1.92%    100.00% # Number of insts issued each cycle (Count)
system.cpu.numIssuedDist::overflows                 0      0.00%    100.00% # Number of insts issued each cycle (Count)
system.cpu.numIssuedDist::min_value                 0                       # Number of insts issued each cycle (Count)
system.cpu.numIssuedDist::max_value                 8                       # Number of insts issued each cycle (Count)
system.cpu.numIssuedDist::total              24821853                       # Number of insts issued each cycle (Count)
system.cpu.statFuBusy::No_OpClass                   0      0.00%      0.00% # attempts to use FU when none available (Count)
system.cpu.statFuBusy::IntAlu                  218510     13.13%     13.13% # attempts to use FU when none available (Count)
system.cpu.statFuBusy::IntMult                  81448      4.90%     18.03% # attempts to use FU when none available (Count)
system.cpu.statFuBusy::IntDiv                    1237      0.07%     18.10% # attempts to use FU when none available (Count)
system.cpu.statFuBusy::FloatAdd                     0      0.00%     18.10% # attempts to use FU when none available (Count)
system.cpu.statFuBusy::FloatCmp                     0      0.00%     18.10% # attempts to use FU when none available (Count)
system.cpu.statFuBusy::FloatCvt                     0      0.00%     18.10% # attempts to use FU when none available (Count)
system.cpu.statFuBusy::FloatMult                    0      0.00%     18.10% # attempts to use FU when none available (Count)
system.cpu.statFuBusy::FloatMultAcc                 0      0.00%     18.10% # attempts to use FU when none available (Count)
system.cpu.statFuBusy::FloatDiv                     0      0.00%     18.10% # attempts to use FU when none available (Count)
system.cpu.statFuBusy::FloatMisc                    0      0.00%     18.10% # attempts to use FU when none available (Count)
system.cpu.statFuBusy::FloatSqrt                    0      0.00%     18.10% # attempts to use FU when none available (Count)
system.cpu.statFuBusy::SimdAdd                      0      0.00%     18.10% # attempts to use FU when none available (Count)
system.cpu.statFuBusy::SimdAddAcc                   0      0.00%     18.10% # attempts to use FU when none available (Count)
system.cpu.statFuBusy::SimdAlu                      0      0.00%     18.10% # attempts to use FU when none available (Count)
system.cpu.statFuBusy::SimdCmp                      0      0.00%     18.10% # attempts to use FU when none available (Count)
system.cpu.statFuBusy::SimdCvt                      0      0.00%     18.10% # attempts to use FU when none available (Count)
system.cpu.statFuBusy::SimdMisc                     0      0.00%     18.10% # attempts to use FU when none available (Count)
system.cpu.statFuBusy::SimdMult                     0      0.00%     18.10% # attempts to use FU when none available (Count)
system.cpu.statFuBusy::SimdMultAcc                  0      0.00%     18.10% # attempts to use FU when none available (Count)
system.cpu.statFuBusy::SimdShift                    0      0.00%     18.10% # attempts to use FU when none available (Count)
system.cpu.statFuBusy::SimdShiftAcc                 0      0.00%     18.10% # attempts to use FU when none available (Count)
system.cpu.statFuBusy::SimdDiv                      0      0.00%     18.10% # attempts to use FU when none available (Count)
system.cpu.statFuBusy::SimdSqrt                     0      0.00%     18.10% # attempts to use FU when none available (Count)
system.cpu.statFuBusy::SimdFloatAdd                 0      0.00%     18.10% # attempts to use FU when none available (Count)
system.cpu.statFuBusy::SimdFloatAlu                 0      0.00%     18.10% # attempts to use FU when none available (Count)
system.cpu.statFuBusy::SimdFloatCmp                 0      0.00%     18.10% # attempts to use FU when none available (Count)
system.cpu.statFuBusy::SimdFloatCvt                 0      0.00%     18.10% # attempts to use FU when none available (Count)
system.cpu.statFuBusy::SimdFloatDiv                 0      0.00%     18.10% # attempts to use FU when none available (Count)
system.cpu.statFuBusy::SimdFloatMisc                0      0.00%     18.10% # attempts to use FU when none available (Count)
system.cpu.statFuBusy::SimdFloatMult                0      0.00%     18.10% # attempts to use FU when none available (Count)
system.cpu.statFuBusy::SimdFloatMultAcc             0      0.00%     18.10% # attempts to use FU when none available (Count)
system.cpu.statFuBusy::SimdFloatSqrt                0      0.00%     18.10% # attempts to use FU when none available (Count)
system.cpu.statFuBusy::SimdReduceAdd                0      0.00%     18.10% # attempts to use FU when none available (Count)
system.cpu.statFuBusy::SimdReduceAlu                0      0.00%     18.10% # attempts to use FU when none available (Count)
system.cpu.statFuBusy::SimdReduceCmp                0      0.00%     18.10% # attempts to use FU when none available (Count)
system.cpu.statFuBusy::SimdFloatReduceAdd            0      0.00%     18.10% # attempts to use FU when none available (Count)
system.cpu.statFuBusy::SimdFloatReduceCmp            0      0.00%     18.10% # attempts to use FU when none available (Count)
system.cpu.statFuBusy::SimdAes                      0      0.00%     18.10% # attempts to use FU when none available (Count)
system.cpu.statFuBusy::SimdAesMix                   0      0.00%     18.10% # attempts to use FU when none available (Count)
system.cpu.statFuBusy::SimdSha1Hash                 0      0.00%     18.10% # attempts to use FU when none available (Count)
system.cpu.statFuBusy::SimdSha1Hash2                0      0.00%     18.10% # attempts to use FU when none available (Count)
system.cpu.statFuBusy::SimdSha256Hash               0      0.00%     18.10% # attempts to use FU when none available (Count)
system.cpu.statFuBusy::SimdSha256Hash2              0      0.00%     18.10% # attempts to use FU when none available (Count)
system.cpu.statFuBusy::SimdShaSigma2                0      0.00%     18.10% # attempts to use FU when none available (Count)
system.cpu.statFuBusy::SimdShaSigma3                0      0.00%     18.10% # attempts to use FU when none available (Count)
system.cpu.statFuBusy::SimdPredAlu                  0      0.00%     18.10% # attempts to use FU when none available (Count)
system.cpu.statFuBusy::MemRead                 867779     52.16%     70.26% # attempts to use FU when none available (Count)
system.cpu.statFuBusy::MemWrite                491333     29.53%     99.79% # attempts to use FU when none available (Count)
system.cpu.statFuBusy::FloatMemRead              3459      0.21%    100.00% # attempts to use FU when none available (Count)
system.cpu.statFuBusy::FloatMemWrite                4      0.00%    100.00% # attempts to use FU when none available (Count)
system.cpu.statFuBusy::IprAccess                    0      0.00%    100.00% # attempts to use FU when none available (Count)
system.cpu.statFuBusy::InstPrefetch                 0      0.00%    100.00% # attempts to use FU when none available (Count)
system.cpu.statIssuedInstType_0::No_OpClass        28731      0.06%      0.06% # Number of instructions issued per FU type, per thread (Count)
system.cpu.statIssuedInstType_0::IntAlu      33229561     64.01%     64.06% # Number of instructions issued per FU type, per thread (Count)
system.cpu.statIssuedInstType_0::IntMult       479278      0.92%     64.99% # Number of instructions issued per FU type, per thread (Count)
system.cpu.statIssuedInstType_0::IntDiv        319379      0.62%     65.60% # Number of instructions issued per FU type, per thread (Count)
system.cpu.statIssuedInstType_0::FloatAdd       278539      0.54%     66.14% # Number of instructions issued per FU type, per thread (Count)
system.cpu.statIssuedInstType_0::FloatCmp        16388      0.03%     66.17% # Number of instructions issued per FU type, per thread (Count)
system.cpu.statIssuedInstType_0::FloatCvt        28672      0.06%     66.22% # Number of instructions issued per FU type, per thread (Count)
system.cpu.statIssuedInstType_0::FloatMult       262148      0.50%     66.73% # Number of instructions issued per FU type, per thread (Count)
system.cpu.statIssuedInstType_0::FloatMultAcc            0      0.00%     66.73% # Number of instructions issued per FU type, per thread (Count)
system.cpu.statIssuedInstType_0::FloatDiv            0      0.00%     66.73% # Number of instructions issued per FU type, per thread (Count)
system.cpu.statIssuedInstType_0::FloatMisc         4096      0.01%     66.74% # Number of instructions issued per FU type, per thread (Count)
system.cpu.statIssuedInstType_0::FloatSqrt            0      0.00%     66.74% # Number of instructions issued per FU type, per thread (Count)
system.cpu.statIssuedInstType_0::SimdAdd            0      0.00%     66.74% # Number of instructions issued per FU type, per thread (Count)
system.cpu.statIssuedInstType_0::SimdAddAcc            0      0.00%     66.74% # Number of instructions issued per FU type, per thread (Count)
system.cpu.statIssuedInstType_0::SimdAlu            0      0.00%     66.74% # Number of instructions issued per FU type, per thread (Count)
system.cpu.statIssuedInstType_0::SimdCmp            0      0.00%     66.74% # Number of instructions issued per FU type, per thread (Count)
system.cpu.statIssuedInstType_0::SimdCvt            0      0.00%     66.74% # Number of instructions issued per FU type, per thread (Count)
system.cpu.statIssuedInstType_0::SimdMisc            0      0.00%     66.74% # Number of instructions issued per FU type, per thread (Count)
system.cpu.statIssuedInstType_0::SimdMult            0      0.00%     66.74% # Number of instructions issued per FU type, per thread (Count)
system.cpu.statIssuedInstType_0::SimdMultAcc            0      0.00%     66.74% # Number of instructions issued per FU type, per thread (Count)
system.cpu.statIssuedInstType_0::SimdShift            0      0.00%     66.74% # Number of instructions issued per FU type, per thread (Count)
system.cpu.statIssuedInstType_0::SimdShiftAcc            0      0.00%     66.74% # Number of instructions issued per FU type, per thread (Count)
system.cpu.statIssuedInstType_0::SimdDiv            0      0.00%     66.74% # Number of instructions issued per FU type, per thread (Count)
system.cpu.statIssuedInstType_0::SimdSqrt            0      0.00%     66.74% # Number of instructions issued per FU type, per thread (Count)
system.cpu.statIssuedInstType_0::SimdFloatAdd            0      0.00%     66.74% # Number of instructions issued per FU type, per thread (Count)
system.cpu.statIssuedInstType_0::SimdFloatAlu            0      0.00%     66.74% # Number of instructions issued per FU type, per thread (Count)
system.cpu.statIssuedInstType_0::SimdFloatCmp            0      0.00%     66.74% # Number of instructions issued per FU type, per thread (Count)
system.cpu.statIssuedInstType_0::SimdFloatCvt            0      0.00%     66.74% # Number of instructions issued per FU type, per thread (Count)
system.cpu.statIssuedInstType_0::SimdFloatDiv            0      0.00%     66.74% # Number of instructions issued per FU type, per thread (Count)
system.cpu.statIssuedInstType_0::SimdFloatMisc            0      0.00%     66.74% # Number of instructions issued per FU type, per thread (Count)
system.cpu.statIssuedInstType_0::SimdFloatMult            0      0.00%     66.74% # Number of instructions issued per FU type, per thread (Count)
system.cpu.statIssuedInstType_0::SimdFloatMultAcc            0      0.00%     66.74% # Number of instructions issued per FU type, per thread (Count)
system.cpu.statIssuedInstType_0::SimdFloatSqrt            0      0.00%     66.74% # Number of instructions issued per FU type, per thread (Count)
system.cpu.statIssuedInstType_0::SimdReduceAdd            0      0.00%     66.74% # Number of instructions issued per FU type, per thread (Count)
system.cpu.statIssuedInstType_0::SimdReduceAlu            0      0.00%     66.74% # Number of instructions issued per FU type, per thread (Count)
system.cpu.statIssuedInstType_0::SimdReduceCmp            0      0.00%     66.74% # Number of instructions issued per FU type, per thread (Count)
system.cpu.statIssuedInstType_0::SimdFloatReduceAdd            0      0.00%     66.74% # Number of instructions issued per FU type, per thread (Count)
system.cpu.statIssuedInstType_0::SimdFloatReduceCmp            0      0.00%     66.74% # Number of instructions issued per FU type, per thread (Count)
system.cpu.statIssuedInstType_0::SimdAes            0      0.00%     66.74% # Number of instructions issued per FU type, per thread (Count)
system.cpu.statIssuedInstType_0::SimdAesMix            0      0.00%     66.74% # Number of instructions issued per FU type, per thread (Count)
system.cpu.statIssuedInstType_0::SimdSha1Hash            0      0.00%     66.74% # Number of instructions issued per FU type, per thread (Count)
system.cpu.statIssuedInstType_0::SimdSha1Hash2            0      0.00%     66.74% # Number of instructions issued per FU type, per thread (Count)
system.cpu.statIssuedInstType_0::SimdSha256Hash            0      0.00%     66.74% # Number of instructions issued per FU type, per thread (Count)
system.cpu.statIssuedInstType_0::SimdSha256Hash2            0      0.00%     66.74% # Number of instructions issued per FU type, per thread (Count)
system.cpu.statIssuedInstType_0::SimdShaSigma2            0      0.00%     66.74% # Number of instructions issued per FU type, per thread (Count)
system.cpu.statIssuedInstType_0::SimdShaSigma3            0      0.00%     66.74% # Number of instructions issued per FU type, per thread (Count)
system.cpu.statIssuedInstType_0::SimdPredAlu            0      0.00%     66.74% # Number of instructions issued per FU type, per thread (Count)
system.cpu.statIssuedInstType_0::MemRead     10504057     20.23%     86.97% # Number of instructions issued per FU type, per thread (Count)
system.cpu.statIssuedInstType_0::MemWrite      5034977      9.70%     96.67% # Number of instructions issued per FU type, per thread (Count)
system.cpu.statIssuedInstType_0::FloatMemRead      1147439      2.21%     98.88% # Number of instructions issued per FU type, per thread (Count)
system.cpu.statIssuedInstType_0::FloatMemWrite       581662      1.12%    100.00% # Number of instructions issued per FU type, per thread (Count)
system.cpu.statIssuedInstType_0::IprAccess            0      0.00%    100.00% # Number of instructions issued per FU type, per thread (Count)
system.cpu.statIssuedInstType_0::InstPrefetch            0      0.00%    100.00% # Number of instructions issued per FU type, per thread (Count)
system.cpu.statIssuedInstType_0::total       51914927                       # Number of instructions issued per FU type, per thread (Count)
system.cpu.issueRate                         2.002804                       # Inst issue rate ((Count/Cycle))
system.cpu.fuBusy                             1663770                       # FU busy when requested (Count)
system.cpu.fuBusyRate                        0.032048                       # FU busy rate (busy events/executed inst) ((Count/Count))
system.cpu.intInstQueueReads                125741635                       # Number of integer instruction queue reads (Count)
system.cpu.intInstQueueWrites                54880443                       # Number of integer instruction queue writes (Count)
system.cpu.intInstQueueWakeupAccesses        49077715                       # Number of integer instruction queue wakeup accesses (Count)
system.cpu.fpInstQueueReads                   4641356                       # Number of floating instruction queue reads (Count)
system.cpu.fpInstQueueWrites                  2444486                       # Number of floating instruction queue writes (Count)
system.cpu.fpInstQueueWakeupAccesses          2306285                       # Number of floating instruction queue wakeup accesses (Count)
system.cpu.vecInstQueueReads                        0                       # Number of vector instruction queue reads (Count)
system.cpu.vecInstQueueWrites                       0                       # Number of vector instruction queue writes (Count)
system.cpu.vecInstQueueWakeupAccesses               0                       # Number of vector instruction queue wakeup accesses (Count)
system.cpu.intAluAccesses                    51227559                       # Number of integer alu accesses (Count)
system.cpu.fpAluAccesses                      2322407                       # Number of floating point alu accesses (Count)
system.cpu.vecAluAccesses                           0                       # Number of vector alu accesses (Count)
system.cpu.numInsts                          51583130                       # Number of executed instructions (Count)
system.cpu.numLoadInsts                      11529579                       # Number of load instructions executed (Count)
system.cpu.numSquashedInsts                    331797                       # Number of squashed instructions skipped in execute (Count)
system.cpu.numSwp                                   0                       # Number of swp insts executed (Count)
system.cpu.numNop                                   0                       # Number of nop insts executed (Count)
system.cpu.numRefs                           17131555                       # Number of memory reference insts executed (Count)
system.cpu.numBranches                        9001160                       # Number of branches executed (Count)
system.cpu.numStoreInsts                      5601976                       # Number of stores executed (Count)
system.cpu.numRate                           1.990004                       # Inst execution rate ((Count/Cycle))
system.cpu.timesIdled                           50700                       # Number of times that the entire CPU went into an idle state and unscheduled itself (Count)
system.cpu.idleCycles                         1099269                       # Total number of cycles that the CPU has spent unscheduled due to idling (Cycle)
system.cpu.committedInsts                    48982758                       # Number of Instructions Simulated (Count)
system.cpu.committedOps                      48982773                       # Number of Ops (including micro ops) Simulated (Count)
system.cpu.cpi                               0.529189                       # CPI: Cycles Per Instruction ((Cycle/Count))
system.cpu.totalCpi                          0.529189                       # CPI: Total CPI of All Threads ((Cycle/Count))
system.cpu.ipc                               1.889685                       # IPC: Instructions Per Cycle ((Count/Cycle))
system.cpu.totalIpc                          1.889685                       # IPC: Total IPC of All Threads ((Count/Cycle))
system.cpu.intRegfileReads                   64222685                       # Number of integer regfile reads (Count)
system.cpu.intRegfileWrites                  35865096                       # Number of integer regfile writes (Count)
system.cpu.fpRegfileReads                     1712194                       # Number of floating regfile reads (Count)
system.cpu.fpRegfileWrites                    1700074                       # Number of floating regfile writes (Count)
system.cpu.miscRegfileReads                   3449157                       # number of misc regfile reads (Count)
system.cpu.miscRegfileWrites                   589824                       # number of misc regfile writes (Count)
system.cpu.MemDepUnit__0.insertedLoads       11808578                       # Number of loads inserted to the mem dependence unit. (Count)
system.cpu.MemDepUnit__0.insertedStores       5738702                       # Number of stores inserted to the mem dependence unit. (Count)
system.cpu.MemDepUnit__0.conflictingLoads      2962444                       # Number of conflicting loads. (Count)
system.cpu.MemDepUnit__0.conflictingStores      1089660                       # Number of conflicting stores. (Count)
system.cpu.MemDepUnit__1.insertedLoads              0                       # Number of loads inserted to the mem dependence unit. (Count)
system.cpu.MemDepUnit__1.insertedStores             0                       # Number of stores inserted to the mem dependence unit. (Count)
system.cpu.MemDepUnit__1.conflictingLoads            0                       # Number of conflicting loads. (Count)
system.cpu.MemDepUnit__1.conflictingStores            0                       # Number of conflicting stores. (Count)
system.cpu.MemDepUnit__2.insertedLoads              0                       # Number of loads inserted to the mem dependence unit. (Count)
system.cpu.MemDepUnit__2.insertedStores             0                       # Number of stores inserted to the mem dependence unit. (Count)
system.cpu.MemDepUnit__2.conflictingLoads            0                       # Number of conflicting loads. (Count)
system.cpu.MemDepUnit__2.conflictingStores            0                       # Number of conflicting stores. (Count)
system.cpu.MemDepUnit__3.insertedLoads              0                       # Number of loads inserted to the mem dependence unit. (Count)
system.cpu.MemDepUnit__3.insertedStores             0                       # Number of stores inserted to the mem dependence unit. (Count)
system.cpu.MemDepUnit__3.conflictingLoads            0                       # Number of conflicting loads. (Count)
system.cpu.MemDepUnit__3.conflictingStores            0                       # Number of conflicting stores. (Count)
system.cpu.branchPred.lookups                10352389                       # Number of BP lookups (Count)
system.cpu.branchPred.condPredicted           7876474                       # Number of conditional branches predicted (Count)
system.cpu.branchPred.condIncorrect            194313                       # Number of conditional branches incorrect (Count)
system.cpu.branchPred.BTBLookups              5905116                       # Number of BTB lookups (Count)
system.cpu.branchPred.BTBHits                 5880840                       # Number of BTB hits (Count)
system.cpu.branchPred.BTBHitRatio            0.995889                       # BTB Hit Ratio (Ratio)
system.cpu.branchPred.RASUsed                       0                       # Number of times the RAS was used to get a target. (Count)
system.cpu.branchPred.RASIncorrect                  0                       # Number of incorrect RAS predictions. (Count)
system.cpu.branchPred.indirectLookups          600880                       # Number of indirect predictor lookups. (Count)
system.cpu.branchPred.indirectHits             598932                       # Number of indirect target hits. (Count)
system.cpu.branchPred.indirectMisses             1948                       # Number of indirect misses. (Count)
system.cpu.branchPred.indirectMispredicted        19894                       # Number of mispredicted indirect branches. (Count)
system.cpu.commit.commitSquashedInsts         4163999                       # The number of squashed insts skipped by commit (Count)
system.cpu.commit.commitNonSpecStalls           28748                       # The number of times commit has been forced to stall to communicate backwards (Count)
system.cpu.commit.branchMispredicts            181921                       # The number of times a branch was mispredicted (Count)
system.cpu.commit.numCommittedDist::samples     24196815                       # Number of insts commited each cycle (Count)
system.cpu.commit.numCommittedDist::mean     2.024348                       # Number of insts commited each cycle (Count)
system.cpu.commit.numCommittedDist::stdev     2.665204                       # Number of insts commited each cycle (Count)
system.cpu.commit.numCommittedDist::underflows            0      0.00%      0.00% # Number of insts commited each cycle (Count)
system.cpu.commit.numCommittedDist::0         9762361     40.35%     40.35% # Number of insts commited each cycle (Count)
system.cpu.commit.numCommittedDist::1         5110313     21.12%     61.47% # Number of insts commited each cycle (Count)
system.cpu.commit.numCommittedDist::2         2830200     11.70%     73.16% # Number of insts commited each cycle (Count)
system.cpu.commit.numCommittedDist::3         1646149      6.80%     79.97% # Number of insts commited each cycle (Count)
system.cpu.commit.numCommittedDist::4          626419      2.59%     82.55% # Number of insts commited each cycle (Count)
system.cpu.commit.numCommittedDist::5          651581      2.69%     85.25% # Number of insts commited each cycle (Count)
system.cpu.commit.numCommittedDist::6          367473      1.52%     86.77% # Number of insts commited each cycle (Count)
system.cpu.commit.numCommittedDist::7          313358      1.30%     88.06% # Number of insts commited each cycle (Count)
system.cpu.commit.numCommittedDist::8         2888961     11.94%    100.00% # Number of insts commited each cycle (Count)
system.cpu.commit.numCommittedDist::overflows            0      0.00%    100.00% # Number of insts commited each cycle (Count)
system.cpu.commit.numCommittedDist::min_value            0                       # Number of insts commited each cycle (Count)
system.cpu.commit.numCommittedDist::max_value            8                       # Number of insts commited each cycle (Count)
system.cpu.commit.numCommittedDist::total     24196815                       # Number of insts commited each cycle (Count)
system.cpu.commit.instsCommitted             48982758                       # Number of instructions committed (Count)
system.cpu.commit.opsCommitted               48982773                       # Number of ops (including micro ops) committed (Count)
system.cpu.commit.memRefs                    16254198                       # Number of memory references committed (Count)
system.cpu.commit.loads                      10945204                       # Number of loads committed (Count)
system.cpu.commit.amos                             17                       # Number of atomic instructions committed (Count)
system.cpu.commit.membars                          25                       # Number of memory barriers committed (Count)
system.cpu.commit.branches                    8372520                       # Number of branches committed (Count)
system.cpu.commit.vectorInstructions                0                       # Number of committed Vector instructions. (Count)
system.cpu.commit.floating                    2289676                       # Number of committed floating point instructions. (Count)
system.cpu.commit.integer                    47606916                       # Number of committed integer instructions. (Count)
system.cpu.commit.functionCalls               1174802                       # Number of function calls committed. (Count)
system.cpu.commit.committedInstType_0::No_OpClass        24601      0.05%      0.05% # Class of committed instruction (Count)
system.cpu.commit.committedInstType_0::IntAlu     31319113     63.94%     63.99% # Class of committed instruction (Count)
system.cpu.commit.committedInstType_0::IntMult       479222      0.98%     64.97% # Class of committed instruction (Count)
system.cpu.commit.committedInstType_0::IntDiv       315815      0.64%     65.61% # Class of committed instruction (Count)
system.cpu.commit.committedInstType_0::FloatAdd       278528      0.57%     66.18% # Class of committed instruction (Count)
system.cpu.commit.committedInstType_0::FloatCmp        16384      0.03%     66.21% # Class of committed instruction (Count)
system.cpu.commit.committedInstType_0::FloatCvt        28672      0.06%     66.27% # Class of committed instruction (Count)
system.cpu.commit.committedInstType_0::FloatMult       262144      0.54%     66.81% # Class of committed instruction (Count)
system.cpu.commit.committedInstType_0::FloatMultAcc            0      0.00%     66.81% # Class of committed instruction (Count)
system.cpu.commit.committedInstType_0::FloatDiv            0      0.00%     66.81% # Class of committed instruction (Count)
system.cpu.commit.committedInstType_0::FloatMisc         4096      0.01%     66.82% # Class of committed instruction (Count)
system.cpu.commit.committedInstType_0::FloatSqrt            0      0.00%     66.82% # Class of committed instruction (Count)
system.cpu.commit.committedInstType_0::SimdAdd            0      0.00%     66.82% # Class of committed instruction (Count)
system.cpu.commit.committedInstType_0::SimdAddAcc            0      0.00%     66.82% # Class of committed instruction (Count)
system.cpu.commit.committedInstType_0::SimdAlu            0      0.00%     66.82% # Class of committed instruction (Count)
system.cpu.commit.committedInstType_0::SimdCmp            0      0.00%     66.82% # Class of committed instruction (Count)
system.cpu.commit.committedInstType_0::SimdCvt            0      0.00%     66.82% # Class of committed instruction (Count)
system.cpu.commit.committedInstType_0::SimdMisc            0      0.00%     66.82% # Class of committed instruction (Count)
system.cpu.commit.committedInstType_0::SimdMult            0      0.00%     66.82% # Class of committed instruction (Count)
system.cpu.commit.committedInstType_0::SimdMultAcc            0      0.00%     66.82% # Class of committed instruction (Count)
system.cpu.commit.committedInstType_0::SimdShift            0      0.00%     66.82% # Class of committed instruction (Count)
system.cpu.commit.committedInstType_0::SimdShiftAcc            0      0.00%     66.82% # Class of committed instruction (Count)
system.cpu.commit.committedInstType_0::SimdDiv            0      0.00%     66.82% # Class of committed instruction (Count)
system.cpu.commit.committedInstType_0::SimdSqrt            0      0.00%     66.82% # Class of committed instruction (Count)
system.cpu.commit.committedInstType_0::SimdFloatAdd            0      0.00%     66.82% # Class of committed instruction (Count)
system.cpu.commit.committedInstType_0::SimdFloatAlu            0      0.00%     66.82% # Class of committed instruction (Count)
system.cpu.commit.committedInstType_0::SimdFloatCmp            0      0.00%     66.82% # Class of committed instruction (Count)
system.cpu.commit.committedInstType_0::SimdFloatCvt            0      0.00%     66.82% # Class of committed instruction (Count)
system.cpu.commit.committedInstType_0::SimdFloatDiv            0      0.00%     66.82% # Class of committed instruction (Count)
system.cpu.commit.committedInstType_0::SimdFloatMisc            0      0.00%     66.82% # Class of committed instruction (Count)
system.cpu.commit.committedInstType_0::SimdFloatMult            0      0.00%     66.82% # Class of committed instruction (Count)
system.cpu.commit.committedInstType_0::SimdFloatMultAcc            0      0.00%     66.82% # Class of committed instruction (Count)
system.cpu.commit.committedInstType_0::SimdFloatSqrt            0      0.00%     66.82% # Class of committed instruction (Count)
system.cpu.commit.committedInstType_0::SimdReduceAdd            0      0.00%     66.82% # Class of committed instruction (Count)
system.cpu.commit.committedInstType_0::SimdReduceAlu            0      0.00%     66.82% # Class of committed instruction (Count)
system.cpu.commit.committedInstType_0::SimdReduceCmp            0      0.00%     66.82% # Class of committed instruction (Count)
system.cpu.commit.committedInstType_0::SimdFloatReduceAdd            0      0.00%     66.82% # Class of committed instruction (Count)
system.cpu.commit.committedInstType_0::SimdFloatReduceCmp            0      0.00%     66.82% # Class of committed instruction (Count)
system.cpu.commit.committedInstType_0::SimdAes            0      0.00%     66.82% # Class of committed instruction (Count)
system.cpu.commit.committedInstType_0::SimdAesMix            0      0.00%     66.82% # Class of committed instruction (Count)
system.cpu.commit.committedInstType_0::SimdSha1Hash            0      0.00%     66.82% # Class of committed instruction (Count)
system.cpu.commit.committedInstType_0::SimdSha1Hash2            0      0.00%     66.82% # Class of committed instruction (Count)
system.cpu.commit.committedInstType_0::SimdSha256Hash            0      0.00%     66.82% # Class of committed instruction (Count)
system.cpu.commit.committedInstType_0::SimdSha256Hash2            0      0.00%     66.82% # Class of committed instruction (Count)
system.cpu.commit.committedInstType_0::SimdShaSigma2            0      0.00%     66.82% # Class of committed instruction (Count)
system.cpu.commit.committedInstType_0::SimdShaSigma3            0      0.00%     66.82% # Class of committed instruction (Count)
system.cpu.commit.committedInstType_0::SimdPredAlu            0      0.00%     66.82% # Class of committed instruction (Count)
system.cpu.commit.committedInstType_0::MemRead      9818821     20.05%     86.86% # Class of committed instruction (Count)
system.cpu.commit.committedInstType_0::MemWrite      4735525      9.67%     96.53% # Class of committed instruction (Count)
system.cpu.commit.committedInstType_0::FloatMemRead      1126400      2.30%     98.83% # Class of committed instruction (Count)
system.cpu.commit.committedInstType_0::FloatMemWrite       573452      1.17%    100.00% # Class of committed instruction (Count)
system.cpu.commit.committedInstType_0::IprAccess            0      0.00%    100.00% # Class of committed instruction (Count)
system.cpu.commit.committedInstType_0::InstPrefetch            0      0.00%    100.00% # Class of committed instruction (Count)
system.cpu.commit.committedInstType_0::total     48982773                       # Class of committed instruction (Count)
system.cpu.commit.commitEligibleSamples       2888961                       # number cycles where commit BW limit reached (Cycle)
system.cpu.dcache.demandHits::cpu.data       13104513                       # number of demand (read+write) hits (Count)
system.cpu.dcache.demandHits::total          13104513                       # number of demand (read+write) hits (Count)
system.cpu.dcache.overallHits::cpu.data      13104513                       # number of overall hits (Count)
system.cpu.dcache.overallHits::total         13104513                       # number of overall hits (Count)
system.cpu.dcache.demandMisses::cpu.data        42508                       # number of demand (read+write) misses (Count)
system.cpu.dcache.demandMisses::total           42508                       # number of demand (read+write) misses (Count)
system.cpu.dcache.overallMisses::cpu.data        42508                       # number of overall misses (Count)
system.cpu.dcache.overallMisses::total          42508                       # number of overall misses (Count)
system.cpu.dcache.demandMissLatency::cpu.data   2385694995                       # number of demand (read+write) miss ticks (Tick)
system.cpu.dcache.demandMissLatency::total   2385694995                       # number of demand (read+write) miss ticks (Tick)
system.cpu.dcache.overallMissLatency::cpu.data   2385694995                       # number of overall miss ticks (Tick)
system.cpu.dcache.overallMissLatency::total   2385694995                       # number of overall miss ticks (Tick)
system.cpu.dcache.demandAccesses::cpu.data     13147021                       # number of demand (read+write) accesses (Count)
system.cpu.dcache.demandAccesses::total      13147021                       # number of demand (read+write) accesses (Count)
system.cpu.dcache.overallAccesses::cpu.data     13147021                       # number of overall (read+write) accesses (Count)
system.cpu.dcache.overallAccesses::total     13147021                       # number of overall (read+write) accesses (Count)
system.cpu.dcache.demandMissRate::cpu.data     0.003233                       # miss rate for demand accesses (Ratio)
system.cpu.dcache.demandMissRate::total      0.003233                       # miss rate for demand accesses (Ratio)
system.cpu.dcache.overallMissRate::cpu.data     0.003233                       # miss rate for overall accesses (Ratio)
system.cpu.dcache.overallMissRate::total     0.003233                       # miss rate for overall accesses (Ratio)
system.cpu.dcache.demandAvgMissLatency::cpu.data 56123.435471                       # average overall miss latency ((Cycle/Count))
system.cpu.dcache.demandAvgMissLatency::total 56123.435471                       # average overall miss latency ((Cycle/Count))
system.cpu.dcache.overallAvgMissLatency::cpu.data 56123.435471                       # average overall miss latency ((Cycle/Count))
system.cpu.dcache.overallAvgMissLatency::total 56123.435471                       # average overall miss latency ((Cycle/Count))
system.cpu.dcache.blockedCycles::no_mshrs        30958                       # number of cycles access was blocked (Cycle)
system.cpu.dcache.blockedCycles::no_targets          502                       # number of cycles access was blocked (Cycle)
system.cpu.dcache.blockedCauses::no_mshrs         1203                       # number of times access was blocked (Count)
system.cpu.dcache.blockedCauses::no_targets            1                       # number of times access was blocked (Count)
system.cpu.dcache.avgBlocked::no_mshrs      25.733998                       # average number of cycles each access was blocked ((Cycle/Count))
system.cpu.dcache.avgBlocked::no_targets          502                       # average number of cycles each access was blocked ((Cycle/Count))
system.cpu.dcache.writebacks::writebacks         5514                       # number of writebacks (Count)
system.cpu.dcache.writebacks::total              5514                       # number of writebacks (Count)
system.cpu.dcache.demandMshrHits::cpu.data        34128                       # number of demand (read+write) MSHR hits (Count)
system.cpu.dcache.demandMshrHits::total         34128                       # number of demand (read+write) MSHR hits (Count)
system.cpu.dcache.overallMshrHits::cpu.data        34128                       # number of overall MSHR hits (Count)
system.cpu.dcache.overallMshrHits::total        34128                       # number of overall MSHR hits (Count)
system.cpu.dcache.demandMshrMisses::cpu.data         8380                       # number of demand (read+write) MSHR misses (Count)
system.cpu.dcache.demandMshrMisses::total         8380                       # number of demand (read+write) MSHR misses (Count)
system.cpu.dcache.overallMshrMisses::cpu.data         8380                       # number of overall MSHR misses (Count)
system.cpu.dcache.overallMshrMisses::total         8380                       # number of overall MSHR misses (Count)
system.cpu.dcache.demandMshrMissLatency::cpu.data    506936000                       # number of demand (read+write) MSHR miss ticks (Tick)
system.cpu.dcache.demandMshrMissLatency::total    506936000                       # number of demand (read+write) MSHR miss ticks (Tick)
system.cpu.dcache.overallMshrMissLatency::cpu.data    506936000                       # number of overall MSHR miss ticks (Tick)
system.cpu.dcache.overallMshrMissLatency::total    506936000                       # number of overall MSHR miss ticks (Tick)
system.cpu.dcache.demandMshrMissRate::cpu.data     0.000637                       # mshr miss ratio for demand accesses (Ratio)
system.cpu.dcache.demandMshrMissRate::total     0.000637                       # mshr miss ratio for demand accesses (Ratio)
system.cpu.dcache.overallMshrMissRate::cpu.data     0.000637                       # mshr miss ratio for overall accesses (Ratio)
system.cpu.dcache.overallMshrMissRate::total     0.000637                       # mshr miss ratio for overall accesses (Ratio)
system.cpu.dcache.demandAvgMshrMissLatency::cpu.data 60493.556086                       # average overall mshr miss latency ((Cycle/Count))
system.cpu.dcache.demandAvgMshrMissLatency::total 60493.556086                       # average overall mshr miss latency ((Cycle/Count))
system.cpu.dcache.overallAvgMshrMissLatency::cpu.data 60493.556086                       # average overall mshr miss latency ((Cycle/Count))
system.cpu.dcache.overallAvgMshrMissLatency::total 60493.556086                       # average overall mshr miss latency ((Cycle/Count))
system.cpu.dcache.replacements                   6334                       # number of replacements (Count)
system.cpu.dcache.LoadLockedReq.hits::cpu.data            9                       # number of LoadLockedReq hits (Count)
system.cpu.dcache.LoadLockedReq.hits::total            9                       # number of LoadLockedReq hits (Count)
system.cpu.dcache.LoadLockedReq.misses::cpu.data            4                       # number of LoadLockedReq misses (Count)
system.cpu.dcache.LoadLockedReq.misses::total            4                       # number of LoadLockedReq misses (Count)
system.cpu.dcache.LoadLockedReq.missLatency::cpu.data       601500                       # number of LoadLockedReq miss ticks (Tick)
system.cpu.dcache.LoadLockedReq.missLatency::total       601500                       # number of LoadLockedReq miss ticks (Tick)
system.cpu.dcache.LoadLockedReq.accesses::cpu.data           13                       # number of LoadLockedReq accesses(hits+misses) (Count)
system.cpu.dcache.LoadLockedReq.accesses::total           13                       # number of LoadLockedReq accesses(hits+misses) (Count)
system.cpu.dcache.LoadLockedReq.missRate::cpu.data     0.307692                       # miss rate for LoadLockedReq accesses (Ratio)
system.cpu.dcache.LoadLockedReq.missRate::total     0.307692                       # miss rate for LoadLockedReq accesses (Ratio)
system.cpu.dcache.LoadLockedReq.avgMissLatency::cpu.data       150375                       # average LoadLockedReq miss latency ((Tick/Count))
system.cpu.dcache.LoadLockedReq.avgMissLatency::total       150375                       # average LoadLockedReq miss latency ((Tick/Count))
system.cpu.dcache.LoadLockedReq.mshrHits::cpu.data            2                       # number of LoadLockedReq MSHR hits (Count)
system.cpu.dcache.LoadLockedReq.mshrHits::total            2                       # number of LoadLockedReq MSHR hits (Count)
system.cpu.dcache.LoadLockedReq.mshrMisses::cpu.data            2                       # number of LoadLockedReq MSHR misses (Count)
system.cpu.dcache.LoadLockedReq.mshrMisses::total            2                       # number of LoadLockedReq MSHR misses (Count)
system.cpu.dcache.LoadLockedReq.mshrMissLatency::cpu.data       165500                       # number of LoadLockedReq MSHR miss ticks (Tick)
system.cpu.dcache.LoadLockedReq.mshrMissLatency::total       165500                       # number of LoadLockedReq MSHR miss ticks (Tick)
system.cpu.dcache.LoadLockedReq.mshrMissRate::cpu.data     0.153846                       # mshr miss rate for LoadLockedReq accesses (Ratio)
system.cpu.dcache.LoadLockedReq.mshrMissRate::total     0.153846                       # mshr miss rate for LoadLockedReq accesses (Ratio)
system.cpu.dcache.LoadLockedReq.avgMshrMissLatency::cpu.data        82750                       # average LoadLockedReq mshr miss latency ((Tick/Count))
system.cpu.dcache.LoadLockedReq.avgMshrMissLatency::total        82750                       # average LoadLockedReq mshr miss latency ((Tick/Count))
system.cpu.dcache.ReadReq.hits::cpu.data      7810030                       # number of ReadReq hits (Count)
system.cpu.dcache.ReadReq.hits::total         7810030                       # number of ReadReq hits (Count)
system.cpu.dcache.ReadReq.misses::cpu.data        28023                       # number of ReadReq misses (Count)
system.cpu.dcache.ReadReq.misses::total         28023                       # number of ReadReq misses (Count)
system.cpu.dcache.ReadReq.missLatency::cpu.data   1656717000                       # number of ReadReq miss ticks (Tick)
system.cpu.dcache.ReadReq.missLatency::total   1656717000                       # number of ReadReq miss ticks (Tick)
system.cpu.dcache.ReadReq.accesses::cpu.data      7838053                       # number of ReadReq accesses(hits+misses) (Count)
system.cpu.dcache.ReadReq.accesses::total      7838053                       # number of ReadReq accesses(hits+misses) (Count)
system.cpu.dcache.ReadReq.missRate::cpu.data     0.003575                       # miss rate for ReadReq accesses (Ratio)
system.cpu.dcache.ReadReq.missRate::total     0.003575                       # miss rate for ReadReq accesses (Ratio)
system.cpu.dcache.ReadReq.avgMissLatency::cpu.data 59119.901509                       # average ReadReq miss latency ((Tick/Count))
system.cpu.dcache.ReadReq.avgMissLatency::total 59119.901509                       # average ReadReq miss latency ((Tick/Count))
system.cpu.dcache.ReadReq.mshrHits::cpu.data        22944                       # number of ReadReq MSHR hits (Count)
system.cpu.dcache.ReadReq.mshrHits::total        22944                       # number of ReadReq MSHR hits (Count)
system.cpu.dcache.ReadReq.mshrMisses::cpu.data         5079                       # number of ReadReq MSHR misses (Count)
system.cpu.dcache.ReadReq.mshrMisses::total         5079                       # number of ReadReq MSHR misses (Count)
system.cpu.dcache.ReadReq.mshrMissLatency::cpu.data    309828000                       # number of ReadReq MSHR miss ticks (Tick)
system.cpu.dcache.ReadReq.mshrMissLatency::total    309828000                       # number of ReadReq MSHR miss ticks (Tick)
system.cpu.dcache.ReadReq.mshrMissRate::cpu.data     0.000648                       # mshr miss rate for ReadReq accesses (Ratio)
system.cpu.dcache.ReadReq.mshrMissRate::total     0.000648                       # mshr miss rate for ReadReq accesses (Ratio)
system.cpu.dcache.ReadReq.avgMshrMissLatency::cpu.data 61001.772002                       # average ReadReq mshr miss latency ((Tick/Count))
system.cpu.dcache.ReadReq.avgMshrMissLatency::total 61001.772002                       # average ReadReq mshr miss latency ((Tick/Count))
system.cpu.dcache.StoreCondReq.hits::cpu.data            9                       # number of StoreCondReq hits (Count)
system.cpu.dcache.StoreCondReq.hits::total            9                       # number of StoreCondReq hits (Count)
system.cpu.dcache.StoreCondReq.accesses::cpu.data            9                       # number of StoreCondReq accesses(hits+misses) (Count)
system.cpu.dcache.StoreCondReq.accesses::total            9                       # number of StoreCondReq accesses(hits+misses) (Count)
system.cpu.dcache.SwapReq.hits::cpu.data           16                       # number of SwapReq hits (Count)
system.cpu.dcache.SwapReq.hits::total              16                       # number of SwapReq hits (Count)
system.cpu.dcache.SwapReq.misses::cpu.data            1                       # number of SwapReq misses (Count)
system.cpu.dcache.SwapReq.misses::total             1                       # number of SwapReq misses (Count)
system.cpu.dcache.SwapReq.missLatency::cpu.data        54999                       # number of SwapReq miss ticks (Tick)
system.cpu.dcache.SwapReq.missLatency::total        54999                       # number of SwapReq miss ticks (Tick)
system.cpu.dcache.SwapReq.accesses::cpu.data           17                       # number of SwapReq accesses(hits+misses) (Count)
system.cpu.dcache.SwapReq.accesses::total           17                       # number of SwapReq accesses(hits+misses) (Count)
system.cpu.dcache.SwapReq.missRate::cpu.data     0.058824                       # miss rate for SwapReq accesses (Ratio)
system.cpu.dcache.SwapReq.missRate::total     0.058824                       # miss rate for SwapReq accesses (Ratio)
system.cpu.dcache.SwapReq.avgMissLatency::cpu.data        54999                       # average SwapReq miss latency ((Tick/Count))
system.cpu.dcache.SwapReq.avgMissLatency::total        54999                       # average SwapReq miss latency ((Tick/Count))
system.cpu.dcache.SwapReq.mshrMisses::cpu.data            1                       # number of SwapReq MSHR misses (Count)
system.cpu.dcache.SwapReq.mshrMisses::total            1                       # number of SwapReq MSHR misses (Count)
system.cpu.dcache.SwapReq.mshrMissLatency::cpu.data        53999                       # number of SwapReq MSHR miss ticks (Tick)
system.cpu.dcache.SwapReq.mshrMissLatency::total        53999                       # number of SwapReq MSHR miss ticks (Tick)
system.cpu.dcache.SwapReq.mshrMissRate::cpu.data     0.058824                       # mshr miss rate for SwapReq accesses (Ratio)
system.cpu.dcache.SwapReq.mshrMissRate::total     0.058824                       # mshr miss rate for SwapReq accesses (Ratio)
system.cpu.dcache.SwapReq.avgMshrMissLatency::cpu.data        53999                       # average SwapReq mshr miss latency ((Tick/Count))
system.cpu.dcache.SwapReq.avgMshrMissLatency::total        53999                       # average SwapReq mshr miss latency ((Tick/Count))
system.cpu.dcache.WriteReq.hits::cpu.data      5294483                       # number of WriteReq hits (Count)
system.cpu.dcache.WriteReq.hits::total        5294483                       # number of WriteReq hits (Count)
system.cpu.dcache.WriteReq.misses::cpu.data        14485                       # number of WriteReq misses (Count)
system.cpu.dcache.WriteReq.misses::total        14485                       # number of WriteReq misses (Count)
system.cpu.dcache.WriteReq.missLatency::cpu.data    728977995                       # number of WriteReq miss ticks (Tick)
system.cpu.dcache.WriteReq.missLatency::total    728977995                       # number of WriteReq miss ticks (Tick)
system.cpu.dcache.WriteReq.accesses::cpu.data      5308968                       # number of WriteReq accesses(hits+misses) (Count)
system.cpu.dcache.WriteReq.accesses::total      5308968                       # number of WriteReq accesses(hits+misses) (Count)
system.cpu.dcache.WriteReq.missRate::cpu.data     0.002728                       # miss rate for WriteReq accesses (Ratio)
system.cpu.dcache.WriteReq.missRate::total     0.002728                       # miss rate for WriteReq accesses (Ratio)
system.cpu.dcache.WriteReq.avgMissLatency::cpu.data 50326.406282                       # average WriteReq miss latency ((Tick/Count))
system.cpu.dcache.WriteReq.avgMissLatency::total 50326.406282                       # average WriteReq miss latency ((Tick/Count))
system.cpu.dcache.WriteReq.mshrHits::cpu.data        11184                       # number of WriteReq MSHR hits (Count)
system.cpu.dcache.WriteReq.mshrHits::total        11184                       # number of WriteReq MSHR hits (Count)
system.cpu.dcache.WriteReq.mshrMisses::cpu.data         3301                       # number of WriteReq MSHR misses (Count)
system.cpu.dcache.WriteReq.mshrMisses::total         3301                       # number of WriteReq MSHR misses (Count)
system.cpu.dcache.WriteReq.mshrMissLatency::cpu.data    197108000                       # number of WriteReq MSHR miss ticks (Tick)
system.cpu.dcache.WriteReq.mshrMissLatency::total    197108000                       # number of WriteReq MSHR miss ticks (Tick)
system.cpu.dcache.WriteReq.mshrMissRate::cpu.data     0.000622                       # mshr miss rate for WriteReq accesses (Ratio)
system.cpu.dcache.WriteReq.mshrMissRate::total     0.000622                       # mshr miss rate for WriteReq accesses (Ratio)
system.cpu.dcache.WriteReq.avgMshrMissLatency::cpu.data 59711.602545                       # average WriteReq mshr miss latency ((Tick/Count))
system.cpu.dcache.WriteReq.avgMshrMissLatency::total 59711.602545                       # average WriteReq mshr miss latency ((Tick/Count))
system.cpu.dcache.power_state.pwrStateResidencyTicks::UNDEFINED  12960560500                       # Cumulative time (in ticks) in various power states (Tick)
system.cpu.dcache.tags.tagsInUse          2036.780685                       # Average ticks per tags in use ((Tick/Count))
system.cpu.dcache.tags.totalRefs             13112929                       # Total number of references to valid blocks. (Count)
system.cpu.dcache.tags.sampledRefs               8382                       # Sample count of references to valid blocks. (Count)
system.cpu.dcache.tags.avgRefs            1564.415295                       # Average number of references to valid blocks. ((Count/Count))
system.cpu.dcache.tags.warmupTick              202000                       # The tick when the warmup percentage was hit. (Tick)
system.cpu.dcache.tags.occupancies::cpu.data  2036.780685                       # Average occupied blocks per tick, per requestor ((Count/Tick))
system.cpu.dcache.tags.avgOccs::cpu.data     0.994522                       # Average percentage of cache occupancy ((Ratio/Tick))
system.cpu.dcache.tags.avgOccs::total        0.994522                       # Average percentage of cache occupancy ((Ratio/Tick))
system.cpu.dcache.tags.occupanciesTaskId::1024         2048                       # Occupied blocks per task id (Count)
system.cpu.dcache.tags.ageTaskId_1024::0           79                       # Occupied blocks per task id, per block age (Count)
system.cpu.dcache.tags.ageTaskId_1024::1          478                       # Occupied blocks per task id, per block age (Count)
system.cpu.dcache.tags.ageTaskId_1024::2         1033                       # Occupied blocks per task id, per block age (Count)
system.cpu.dcache.tags.ageTaskId_1024::3          287                       # Occupied blocks per task id, per block age (Count)
system.cpu.dcache.tags.ageTaskId_1024::4          171                       # Occupied blocks per task id, per block age (Count)
system.cpu.dcache.tags.ratioOccsTaskId::1024            1                       # Ratio of occupied blocks and all blocks, per task id (Ratio)
system.cpu.dcache.tags.tagAccesses           26302502                       # Number of tag accesses (Count)
system.cpu.dcache.tags.dataAccesses          26302502                       # Number of data accesses (Count)
system.cpu.dcache.tags.power_state.pwrStateResidencyTicks::UNDEFINED  12960560500                       # Cumulative time (in ticks) in various power states (Tick)
system.cpu.decode.idleCycles                  6473217                       # Number of cycles decode is idle (Cycle)
system.cpu.decode.blockedCycles               8060149                       # Number of cycles decode is blocked (Cycle)
system.cpu.decode.runCycles                   8648893                       # Number of cycles decode is running (Cycle)
system.cpu.decode.unblockCycles               1444761                       # Number of cycles decode is unblocking (Cycle)
system.cpu.decode.squashCycles                 194833                       # Number of cycles decode is squashing (Cycle)
system.cpu.decode.branchResolved              5683694                       # Number of times decode resolved a branch (Count)
system.cpu.decode.branchMispred                 12415                       # Number of times decode detected a branch misprediction (Count)
system.cpu.decode.decodedInsts               55134269                       # Number of instructions handled by decode (Count)
system.cpu.decode.squashedInsts                 46239                       # Number of squashed instructions handled by decode (Count)
system.cpu.dtb_walker_cache.blockedCycles::no_mshrs            0                       # number of cycles access was blocked (Cycle)
system.cpu.dtb_walker_cache.blockedCycles::no_targets            0                       # number of cycles access was blocked (Cycle)
system.cpu.dtb_walker_cache.blockedCauses::no_mshrs            0                       # number of times access was blocked (Count)
system.cpu.dtb_walker_cache.blockedCauses::no_targets            0                       # number of times access was blocked (Count)
system.cpu.dtb_walker_cache.avgBlocked::no_mshrs          nan                       # average number of cycles each access was blocked ((Cycle/Count))
system.cpu.dtb_walker_cache.avgBlocked::no_targets          nan                       # average number of cycles each access was blocked ((Cycle/Count))
system.cpu.dtb_walker_cache.replacements            0                       # number of replacements (Count)
system.cpu.dtb_walker_cache.power_state.pwrStateResidencyTicks::UNDEFINED  12960560500                       # Cumulative time (in ticks) in various power states (Tick)
system.cpu.dtb_walker_cache.tags.tagsInUse            0                       # Average ticks per tags in use ((Tick/Count))
system.cpu.dtb_walker_cache.tags.totalRefs            0                       # Total number of references to valid blocks. (Count)
system.cpu.dtb_walker_cache.tags.sampledRefs            0                       # Sample count of references to valid blocks. (Count)
system.cpu.dtb_walker_cache.tags.avgRefs          nan                       # Average number of references to valid blocks. ((Count/Count))
system.cpu.dtb_walker_cache.tags.warmupTick            0                       # The tick when the warmup percentage was hit. (Tick)
system.cpu.dtb_walker_cache.tags.tagAccesses            0                       # Number of tag accesses (Count)
system.cpu.dtb_walker_cache.tags.dataAccesses            0                       # Number of data accesses (Count)
system.cpu.dtb_walker_cache.tags.power_state.pwrStateResidencyTicks::UNDEFINED  12960560500                       # Cumulative time (in ticks) in various power states (Tick)
system.cpu.fetch.icacheStallCycles            7751119                       # Number of cycles fetch is stalled on an Icache miss (Cycle)
system.cpu.fetch.insts                       56938622                       # Number of instructions fetch has processed (Count)
system.cpu.fetch.branches                    10352389                       # Number of branches that fetch encountered (Count)
system.cpu.fetch.predictedBranches            6479772                       # Number of branches that fetch has predicted taken (Count)
system.cpu.fetch.cycles                      16863112                       # Number of cycles fetch has run and was not squashing or blocked (Cycle)
system.cpu.fetch.squashCycles                  414466                       # Number of cycles fetch has spent squashing (Cycle)
system.cpu.fetch.miscStallCycles                  192                       # Number of cycles fetch has spent waiting on interrupts, or bad addresses, or out of MSHRs (Cycle)
system.cpu.fetch.pendingTrapStallCycles            54                       # Number of stall cycles due to pending traps (Cycle)
system.cpu.fetch.icacheWaitRetryStallCycles          143                       # Number of stall cycles due to full MSHR (Cycle)
system.cpu.fetch.cacheLines                   6212476                       # Number of cache lines fetched (Count)
system.cpu.fetch.icacheSquashes                 83493                       # Number of outstanding Icache misses that were squashed (Count)
system.cpu.fetch.nisnDist::samples           24821853                       # Number of instructions fetched each cycle (Total) (Count)
system.cpu.fetch.nisnDist::mean              2.293894                       # Number of instructions fetched each cycle (Total) (Count)
system.cpu.fetch.nisnDist::stdev             3.003599                       # Number of instructions fetched each cycle (Total) (Count)
system.cpu.fetch.nisnDist::underflows               0      0.00%      0.00% # Number of instructions fetched each cycle (Total) (Count)
system.cpu.fetch.nisnDist::0                 13325090     53.68%     53.68% # Number of instructions fetched each cycle (Total) (Count)
system.cpu.fetch.nisnDist::1                  1047188      4.22%     57.90% # Number of instructions fetched each cycle (Total) (Count)
system.cpu.fetch.nisnDist::2                  1734643      6.99%     64.89% # Number of instructions fetched each cycle (Total) (Count)
system.cpu.fetch.nisnDist::3                  1126299      4.54%     69.43% # Number of instructions fetched each cycle (Total) (Count)
system.cpu.fetch.nisnDist::4                  1513198      6.10%     75.52% # Number of instructions fetched each cycle (Total) (Count)
system.cpu.fetch.nisnDist::5                   989645      3.99%     79.51% # Number of instructions fetched each cycle (Total) (Count)
system.cpu.fetch.nisnDist::6                   819638      3.30%     82.81% # Number of instructions fetched each cycle (Total) (Count)
system.cpu.fetch.nisnDist::7                  1004740      4.05%     86.86% # Number of instructions fetched each cycle (Total) (Count)
system.cpu.fetch.nisnDist::8                  3261412     13.14%    100.00% # Number of instructions fetched each cycle (Total) (Count)
system.cpu.fetch.nisnDist::overflows                0      0.00%    100.00% # Number of instructions fetched each cycle (Total) (Count)
system.cpu.fetch.nisnDist::min_value                0                       # Number of instructions fetched each cycle (Total) (Count)
system.cpu.fetch.nisnDist::max_value                8                       # Number of instructions fetched each cycle (Total) (Count)
system.cpu.fetch.nisnDist::total             24821853                       # Number of instructions fetched each cycle (Total) (Count)
system.cpu.fetch.branchRate                  0.399380                       # Number of branch fetches per cycle (Ratio)
system.cpu.fetch.rate                        2.196611                       # Number of inst fetches per cycle ((Count/Cycle))
system.cpu.icache.demandHits::cpu.inst        6151830                       # number of demand (read+write) hits (Count)
system.cpu.icache.demandHits::total           6151830                       # number of demand (read+write) hits (Count)
system.cpu.icache.overallHits::cpu.inst       6151830                       # number of overall hits (Count)
system.cpu.icache.overallHits::total          6151830                       # number of overall hits (Count)
system.cpu.icache.demandMisses::cpu.inst        60644                       # number of demand (read+write) misses (Count)
system.cpu.icache.demandMisses::total           60644                       # number of demand (read+write) misses (Count)
system.cpu.icache.overallMisses::cpu.inst        60644                       # number of overall misses (Count)
system.cpu.icache.overallMisses::total          60644                       # number of overall misses (Count)
system.cpu.icache.demandMissLatency::cpu.inst   1428865995                       # number of demand (read+write) miss ticks (Tick)
system.cpu.icache.demandMissLatency::total   1428865995                       # number of demand (read+write) miss ticks (Tick)
system.cpu.icache.overallMissLatency::cpu.inst   1428865995                       # number of overall miss ticks (Tick)
system.cpu.icache.overallMissLatency::total   1428865995                       # number of overall miss ticks (Tick)
system.cpu.icache.demandAccesses::cpu.inst      6212474                       # number of demand (read+write) accesses (Count)
system.cpu.icache.demandAccesses::total       6212474                       # number of demand (read+write) accesses (Count)
system.cpu.icache.overallAccesses::cpu.inst      6212474                       # number of overall (read+write) accesses (Count)
system.cpu.icache.overallAccesses::total      6212474                       # number of overall (read+write) accesses (Count)
system.cpu.icache.demandMissRate::cpu.inst     0.009762                       # miss rate for demand accesses (Ratio)
system.cpu.icache.demandMissRate::total      0.009762                       # miss rate for demand accesses (Ratio)
system.cpu.icache.overallMissRate::cpu.inst     0.009762                       # miss rate for overall accesses (Ratio)
system.cpu.icache.overallMissRate::total     0.009762                       # miss rate for overall accesses (Ratio)
system.cpu.icache.demandAvgMissLatency::cpu.inst 23561.539394                       # average overall miss latency ((Cycle/Count))
system.cpu.icache.demandAvgMissLatency::total 23561.539394                       # average overall miss latency ((Cycle/Count))
system.cpu.icache.overallAvgMissLatency::cpu.inst 23561.539394                       # average overall miss latency ((Cycle/Count))
system.cpu.icache.overallAvgMissLatency::total 23561.539394                       # average overall miss latency ((Cycle/Count))
system.cpu.icache.blockedCycles::no_mshrs         1562                       # number of cycles access was blocked (Cycle)
system.cpu.icache.blockedCycles::no_targets            0                       # number of cycles access was blocked (Cycle)
system.cpu.icache.blockedCauses::no_mshrs           31                       # number of times access was blocked (Count)
system.cpu.icache.blockedCauses::no_targets            0                       # number of times access was blocked (Count)
system.cpu.icache.avgBlocked::no_mshrs      50.387097                       # average number of cycles each access was blocked ((Cycle/Count))
system.cpu.icache.avgBlocked::no_targets          nan                       # average number of cycles each access was blocked ((Cycle/Count))
system.cpu.icache.writebacks::writebacks        57723                       # number of writebacks (Count)
system.cpu.icache.writebacks::total             57723                       # number of writebacks (Count)
system.cpu.icache.demandMshrHits::cpu.inst         2474                       # number of demand (read+write) MSHR hits (Count)
system.cpu.icache.demandMshrHits::total          2474                       # number of demand (read+write) MSHR hits (Count)
system.cpu.icache.overallMshrHits::cpu.inst         2474                       # number of overall MSHR hits (Count)
system.cpu.icache.overallMshrHits::total         2474                       # number of overall MSHR hits (Count)
system.cpu.icache.demandMshrMisses::cpu.inst        58170                       # number of demand (read+write) MSHR misses (Count)
system.cpu.icache.demandMshrMisses::total        58170                       # number of demand (read+write) MSHR misses (Count)
system.cpu.icache.overallMshrMisses::cpu.inst        58170                       # number of overall MSHR misses (Count)
system.cpu.icache.overallMshrMisses::total        58170                       # number of overall MSHR misses (Count)
system.cpu.icache.demandMshrMissLatency::cpu.inst   1325146497                       # number of demand (read+write) MSHR miss ticks (Tick)
system.cpu.icache.demandMshrMissLatency::total   1325146497                       # number of demand (read+write) MSHR miss ticks (Tick)
system.cpu.icache.overallMshrMissLatency::cpu.inst   1325146497                       # number of overall MSHR miss ticks (Tick)
system.cpu.icache.overallMshrMissLatency::total   1325146497                       # number of overall MSHR miss ticks (Tick)
system.cpu.icache.demandMshrMissRate::cpu.inst     0.009363                       # mshr miss ratio for demand accesses (Ratio)
system.cpu.icache.demandMshrMissRate::total     0.009363                       # mshr miss ratio for demand accesses (Ratio)
system.cpu.icache.overallMshrMissRate::cpu.inst     0.009363                       # mshr miss ratio for overall accesses (Ratio)
system.cpu.icache.overallMshrMissRate::total     0.009363                       # mshr miss ratio for overall accesses (Ratio)
system.cpu.icache.demandAvgMshrMissLatency::cpu.inst 22780.582723                       # average overall mshr miss latency ((Cycle/Count))
system.cpu.icache.demandAvgMshrMissLatency::total 22780.582723                       # average overall mshr miss latency ((Cycle/Count))
system.cpu.icache.overallAvgMshrMissLatency::cpu.inst 22780.582723                       # average overall mshr miss latency ((Cycle/Count))
system.cpu.icache.overallAvgMshrMissLatency::total 22780.582723                       # average overall mshr miss latency ((Cycle/Count))
system.cpu.icache.replacements                  57723                       # number of replacements (Count)
system.cpu.icache.ReadReq.hits::cpu.inst      6151830                       # number of ReadReq hits (Count)
system.cpu.icache.ReadReq.hits::total         6151830                       # number of ReadReq hits (Count)
system.cpu.icache.ReadReq.misses::cpu.inst        60644                       # number of ReadReq misses (Count)
system.cpu.icache.ReadReq.misses::total         60644                       # number of ReadReq misses (Count)
system.cpu.icache.ReadReq.missLatency::cpu.inst   1428865995                       # number of ReadReq miss ticks (Tick)
system.cpu.icache.ReadReq.missLatency::total   1428865995                       # number of ReadReq miss ticks (Tick)
system.cpu.icache.ReadReq.accesses::cpu.inst      6212474                       # number of ReadReq accesses(hits+misses) (Count)
system.cpu.icache.ReadReq.accesses::total      6212474                       # number of ReadReq accesses(hits+misses) (Count)
system.cpu.icache.ReadReq.missRate::cpu.inst     0.009762                       # miss rate for ReadReq accesses (Ratio)
system.cpu.icache.ReadReq.missRate::total     0.009762                       # miss rate for ReadReq accesses (Ratio)
system.cpu.icache.ReadReq.avgMissLatency::cpu.inst 23561.539394                       # average ReadReq miss latency ((Tick/Count))
system.cpu.icache.ReadReq.avgMissLatency::total 23561.539394                       # average ReadReq miss latency ((Tick/Count))
system.cpu.icache.ReadReq.mshrHits::cpu.inst         2474                       # number of ReadReq MSHR hits (Count)
system.cpu.icache.ReadReq.mshrHits::total         2474                       # number of ReadReq MSHR hits (Count)
system.cpu.icache.ReadReq.mshrMisses::cpu.inst        58170                       # number of ReadReq MSHR misses (Count)
system.cpu.icache.ReadReq.mshrMisses::total        58170                       # number of ReadReq MSHR misses (Count)
system.cpu.icache.ReadReq.mshrMissLatency::cpu.inst   1325146497                       # number of ReadReq MSHR miss ticks (Tick)
system.cpu.icache.ReadReq.mshrMissLatency::total   1325146497                       # number of ReadReq MSHR miss ticks (Tick)
system.cpu.icache.ReadReq.mshrMissRate::cpu.inst     0.009363                       # mshr miss rate for ReadReq accesses (Ratio)
system.cpu.icache.ReadReq.mshrMissRate::total     0.009363                       # mshr miss rate for ReadReq accesses (Ratio)
system.cpu.icache.ReadReq.avgMshrMissLatency::cpu.inst 22780.582723                       # average ReadReq mshr miss latency ((Tick/Count))
system.cpu.icache.ReadReq.avgMshrMissLatency::total 22780.582723                       # average ReadReq mshr miss latency ((Tick/Count))
system.cpu.icache.power_state.pwrStateResidencyTicks::UNDEFINED  12960560500                       # Cumulative time (in ticks) in various power states (Tick)
system.cpu.icache.tags.tagsInUse           378.186110                       # Average ticks per tags in use ((Tick/Count))
system.cpu.icache.tags.totalRefs              6209998                       # Total number of references to valid blocks. (Count)
system.cpu.icache.tags.sampledRefs              58168                       # Sample count of references to valid blocks. (Count)
system.cpu.icache.tags.avgRefs             106.759696                       # Average number of references to valid blocks. ((Count/Count))
system.cpu.icache.tags.warmupTick               77000                       # The tick when the warmup percentage was hit. (Tick)
system.cpu.icache.tags.occupancies::cpu.inst   378.186110                       # Average occupied blocks per tick, per requestor ((Count/Tick))
system.cpu.icache.tags.avgOccs::cpu.inst     0.738645                       # Average percentage of cache occupancy ((Ratio/Tick))
system.cpu.icache.tags.avgOccs::total        0.738645                       # Average percentage of cache occupancy ((Ratio/Tick))
system.cpu.icache.tags.occupanciesTaskId::1024          445                       # Occupied blocks per task id (Count)
system.cpu.icache.tags.ageTaskId_1024::0          103                       # Occupied blocks per task id, per block age (Count)
system.cpu.icache.tags.ageTaskId_1024::1           24                       # Occupied blocks per task id, per block age (Count)
system.cpu.icache.tags.ageTaskId_1024::2            1                       # Occupied blocks per task id, per block age (Count)
system.cpu.icache.tags.ageTaskId_1024::3          144                       # Occupied blocks per task id, per block age (Count)
system.cpu.icache.tags.ageTaskId_1024::4          173                       # Occupied blocks per task id, per block age (Count)
system.cpu.icache.tags.ratioOccsTaskId::1024     0.869141                       # Ratio of occupied blocks and all blocks, per task id (Ratio)
system.cpu.icache.tags.tagAccesses           12483116                       # Number of tag accesses (Count)
system.cpu.icache.tags.dataAccesses          12483116                       # Number of data accesses (Count)
system.cpu.icache.tags.power_state.pwrStateResidencyTicks::UNDEFINED  12960560500                       # Cumulative time (in ticks) in various power states (Tick)
system.cpu.iew.idleCycles                           0                       # Number of cycles IEW is idle (Cycle)
system.cpu.iew.squashCycles                    194833                       # Number of cycles IEW is squashing (Cycle)
system.cpu.iew.blockCycles                     629442                       # Number of cycles IEW is blocking (Cycle)
system.cpu.iew.unblockCycles                   442043                       # Number of cycles IEW is unblocking (Cycle)
system.cpu.iew.dispatchedInsts               53147395                       # Number of instructions dispatched to IQ (Count)
system.cpu.iew.dispSquashedInsts               142255                       # Number of squashed instructions skipped by dispatch (Count)
system.cpu.iew.dispLoadInsts                 11808578                       # Number of dispatched load instructions (Count)
system.cpu.iew.dispStoreInsts                 5738702                       # Number of dispatched store instructions (Count)
system.cpu.iew.dispNonSpecInsts                 33401                       # Number of dispatched non-speculative instructions (Count)
system.cpu.iew.iqFullEvents                    189514                       # Number of times the IQ has become full, causing a stall (Count)
system.cpu.iew.lsqFullEvents                   249656                       # Number of times the LSQ has become full, causing a stall (Count)
system.cpu.iew.memOrderViolationEvents          12927                       # Number of memory order violations (Count)
system.cpu.iew.predictedTakenIncorrect          85559                       # Number of branches that were predicted taken incorrectly (Count)
[...]
system.mem_ctrls.dram.bwRead::total         328415426                       # Total read bandwidth from this memory ((Byte/Second))
system.mem_ctrls.dram.bwInstRead::cpu.inst    287236960                       # Instruction read bandwidth from this memory ((Byte/Second))
system.mem_ctrls.dram.bwInstRead::total     287236960                       # Instruction read bandwidth from this memory ((Byte/Second))
system.mem_ctrls.dram.bwWrite::writebacks     27228452                       # Write bandwidth from this memory ((Byte/Second))
system.mem_ctrls.dram.bwWrite::total         27228452                       # Write bandwidth from this memory ((Byte/Second))
system.mem_ctrls.dram.bwTotal::writebacks     27228452                       # Total bandwidth to/from this memory ((Byte/Second))
system.mem_ctrls.dram.bwTotal::cpu.inst     287236960                       # Total bandwidth to/from this memory ((Byte/Second))
system.mem_ctrls.dram.bwTotal::cpu.data      41178466                       # Total bandwidth to/from this memory ((Byte/Second))
system.mem_ctrls.dram.bwTotal::total        355643878                       # Total bandwidth to/from this memory ((Byte/Second))
system.mem_ctrls.dram.readBursts                 9135                       # Number of DRAM read bursts (Count)
system.mem_ctrls.dram.writeBursts                5882                       # Number of DRAM write bursts (Count)
system.mem_ctrls.dram.perBankRdBursts::0          602                       # Per bank write bursts (Count)
system.mem_ctrls.dram.perBankRdBursts::1          697                       # Per bank write bursts (Count)
system.mem_ctrls.dram.perBankRdBursts::2          633                       # Per bank write bursts (Count)
system.mem_ctrls.dram.perBankRdBursts::3          536                       # Per bank write bursts (Count)
system.mem_ctrls.dram.perBankRdBursts::4          451                       # Per bank write bursts (Count)
system.mem_ctrls.dram.perBankRdBursts::5          410                       # Per bank write bursts (Count)
system.mem_ctrls.dram.perBankRdBursts::6          444                       # Per bank write bursts (Count)
system.mem_ctrls.dram.perBankRdBursts::7          551                       # Per bank write bursts (Count)
system.mem_ctrls.dram.perBankRdBursts::8          554                       # Per bank write bursts (Count)
system.mem_ctrls.dram.perBankRdBursts::9          544                       # Per bank write bursts (Count)
system.mem_ctrls.dram.perBankRdBursts::10          723                       # Per bank write bursts (Count)
system.mem_ctrls.dram.perBankRdBursts::11          616                       # Per bank write bursts (Count)
system.mem_ctrls.dram.perBankRdBursts::12          570                       # Per bank write bursts (Count)
system.mem_ctrls.dram.perBankRdBursts::13          580                       # Per bank write bursts (Count)
system.mem_ctrls.dram.perBankRdBursts::14          542                       # Per bank write bursts (Count)
system.mem_ctrls.dram.perBankRdBursts::15          682                       # Per bank write bursts (Count)
system.mem_ctrls.dram.perBankWrBursts::0          345                       # Per bank write bursts (Count)
system.mem_ctrls.dram.perBankWrBursts::1          419                       # Per bank write bursts (Count)
system.mem_ctrls.dram.perBankWrBursts::2          329                       # Per bank write bursts (Count)
system.mem_ctrls.dram.perBankWrBursts::3          331                       # Per bank write bursts (Count)
system.mem_ctrls.dram.perBankWrBursts::4          313                       # Per bank write bursts (Count)
system.mem_ctrls.dram.perBankWrBursts::5          296                       # Per bank write bursts (Count)
system.mem_ctrls.dram.perBankWrBursts::6          251                       # Per bank write bursts (Count)
system.mem_ctrls.dram.perBankWrBursts::7          420                       # Per bank write bursts (Count)
system.mem_ctrls.dram.perBankWrBursts::8          341                       # Per bank write bursts (Count)
system.mem_ctrls.dram.perBankWrBursts::9          392                       # Per bank write bursts (Count)
system.mem_ctrls.dram.perBankWrBursts::10          450                       # Per bank write bursts (Count)
system.mem_ctrls.dram.perBankWrBursts::11          435                       # Per bank write bursts (Count)
system.mem_ctrls.dram.perBankWrBursts::12          348                       # Per bank write bursts (Count)
system.mem_ctrls.dram.perBankWrBursts::13          344                       # Per bank write bursts (Count)
system.mem_ctrls.dram.perBankWrBursts::14          452                       # Per bank write bursts (Count)
system.mem_ctrls.dram.perBankWrBursts::15          416                       # Per bank write bursts (Count)
system.mem_ctrls.dram.totQLat                99158250                       # Total ticks spent queuing (Tick)
system.mem_ctrls.dram.totBusLat              45675000                       # Total ticks spent in databus transfers (Tick)
system.mem_ctrls.dram.totMemAccLat          270439500                       # Total ticks spent from burst creation until serviced by the DRAM (Tick)
system.mem_ctrls.dram.avgQLat                10854.76                       # Average queueing delay per DRAM burst ((Tick/Count))
system.mem_ctrls.dram.avgBusLat               5000.00                       # Average bus latency per DRAM burst ((Tick/Count))
system.mem_ctrls.dram.avgMemAccLat           29604.76                       # Average memory access latency per DRAM burst ((Tick/Count))
system.mem_ctrls.dram.readRowHits                7197                       # Number of row buffer hits during reads (Count)
system.mem_ctrls.dram.writeRowHits               5084                       # Number of row buffer hits during writes (Count)
system.mem_ctrls.dram.readRowHitRate            78.78                       # Row buffer hit rate for reads (Ratio)
system.mem_ctrls.dram.writeRowHitRate           86.43                       # Row buffer hit rate for writes (Ratio)
system.mem_ctrls.dram.bytesPerActivate::samples         2722                       # Bytes accessed per row activation (Byte)
system.mem_ctrls.dram.bytesPerActivate::mean   351.482733                       # Bytes accessed per row activation (Byte)
system.mem_ctrls.dram.bytesPerActivate::gmean   234.979179                       # Bytes accessed per row activation (Byte)
system.mem_ctrls.dram.bytesPerActivate::stdev   302.783796                       # Bytes accessed per row activation (Byte)
system.mem_ctrls.dram.bytesPerActivate::0-127          618     22.70%     22.70% # Bytes accessed per row activation (Byte)
system.mem_ctrls.dram.bytesPerActivate::128-255          750     27.55%     50.26% # Bytes accessed per row activation (Byte)
system.mem_ctrls.dram.bytesPerActivate::256-383          289     10.62%     60.87% # Bytes accessed per row activation (Byte)
system.mem_ctrls.dram.bytesPerActivate::384-511          179      6.58%     67.45% # Bytes accessed per row activation (Byte)
system.mem_ctrls.dram.bytesPerActivate::512-639          443     16.27%     83.73% # Bytes accessed per row activation (Byte)
system.mem_ctrls.dram.bytesPerActivate::640-767           72      2.65%     86.37% # Bytes accessed per row activation (Byte)
system.mem_ctrls.dram.bytesPerActivate::768-895           65      2.39%     88.76% # Bytes accessed per row activation (Byte)
system.mem_ctrls.dram.bytesPerActivate::896-1023           37      1.36%     90.12% # Bytes accessed per row activation (Byte)
system.mem_ctrls.dram.bytesPerActivate::1024-1151          269      9.88%    100.00% # Bytes accessed per row activation (Byte)
system.mem_ctrls.dram.bytesPerActivate::total         2722                       # Bytes accessed per row activation (Byte)
system.mem_ctrls.dram.bytesRead                584640                       # Total bytes read (Byte)
system.mem_ctrls.dram.bytesWritten             376448                       # Total bytes written (Byte)
system.mem_ctrls.dram.avgRdBW               45.109160                       # Average DRAM read bandwidth in MiBytes/s ((Byte/Second))
system.mem_ctrls.dram.avgWrBW               29.045657                       # Average DRAM write bandwidth in MiBytes/s ((Byte/Second))
system.mem_ctrls.dram.peakBW                 12800.00                       # Theoretical peak bandwidth in MiByte/s ((Byte/Second))
system.mem_ctrls.dram.busUtil                    0.58                       # Data bus utilization in percentage (Ratio)
system.mem_ctrls.dram.busUtilRead                0.35                       # Data bus utilization in percentage for reads (Ratio)
system.mem_ctrls.dram.busUtilWrite               0.23                       # Data bus utilization in percentage for writes (Ratio)
system.mem_ctrls.dram.pageHitRate               81.78                       # Row buffer hit rate, read and write combined (Ratio)
system.mem_ctrls.dram.power_state.pwrStateResidencyTicks::UNDEFINED  12960560500                       # Cumulative time (in ticks) in various power states (Tick)
system.mem_ctrls.dram.rank0.actEnergy        10081680                       # Energy for activate commands per rank (pJ) (Joule)
system.mem_ctrls.dram.rank0.preEnergy         5331975                       # Energy for precharge commands per rank (pJ) (Joule)
system.mem_ctrls.dram.rank0.readEnergy       30873360                       # Energy for read commands per rank (pJ) (Joule)
system.mem_ctrls.dram.rank0.writeEnergy      14114880                       # Energy for write commands per rank (pJ) (Joule)
system.mem_ctrls.dram.rank0.refreshEnergy 1022760960.000000                       # Energy for refresh commands per rank (pJ) (Joule)
system.mem_ctrls.dram.rank0.actBackEnergy   2178593580                       # Energy for active background per rank (pJ) (Joule)
system.mem_ctrls.dram.rank0.preBackEnergy   3142250400                       # Energy for precharge background per rank (pJ) (Joule)
system.mem_ctrls.dram.rank0.actPowerDownEnergy            0                       # Energy for active power-down per rank (pJ) (Joule)
system.mem_ctrls.dram.rank0.prePowerDownEnergy            0                       # Energy for precharge power-down per rank (pJ) (Joule)
system.mem_ctrls.dram.rank0.selfRefreshEnergy            0                       # Energy for self refresh per rank (pJ) (Joule)
system.mem_ctrls.dram.rank0.totalEnergy    6404006835                       # Total energy per rank (pJ) (Joule)
system.mem_ctrls.dram.rank0.averagePower   494.114960                       # Core power per rank (mW) (Watt)
system.mem_ctrls.dram.rank0.totalIdleTime            0                       # Total Idle time Per DRAM Rank (Tick)
system.mem_ctrls.dram.rank0.pwrStateTime::IDLE   8147663750                       # Time in different power states (Tick)
system.mem_ctrls.dram.rank0.pwrStateTime::REF    432640000                       # Time in different power states (Tick)
system.mem_ctrls.dram.rank0.pwrStateTime::SREF            0                       # Time in different power states (Tick)
system.mem_ctrls.dram.rank0.pwrStateTime::PRE_PDN            0                       # Time in different power states (Tick)
system.mem_ctrls.dram.rank0.pwrStateTime::ACT   4380256750                       # Time in different power states (Tick)
system.mem_ctrls.dram.rank0.pwrStateTime::ACT_PDN            0                       # Time in different power states (Tick)
system.mem_ctrls.dram.rank1.actEnergy         9446220                       # Energy for activate commands per rank (pJ) (Joule)
system.mem_ctrls.dram.rank1.preEnergy         4998015                       # Energy for precharge commands per rank (pJ) (Joule)
system.mem_ctrls.dram.rank1.readEnergy       34336260                       # Energy for read commands per rank (pJ) (Joule)
system.mem_ctrls.dram.rank1.writeEnergy      16589160                       # Energy for write commands per rank (pJ) (Joule)
system.mem_ctrls.dram.rank1.refreshEnergy 1022760960.000000                       # Energy for refresh commands per rank (pJ) (Joule)
system.mem_ctrls.dram.rank1.actBackEnergy   1817707200                       # Energy for active background per rank (pJ) (Joule)
system.mem_ctrls.dram.rank1.preBackEnergy   3446154720                       # Energy for precharge background per rank (pJ) (Joule)
system.mem_ctrls.dram.rank1.actPowerDownEnergy            0                       # Energy for active power-down per rank (pJ) (Joule)
system.mem_ctrls.dram.rank1.prePowerDownEnergy            0                       # Energy for precharge power-down per rank (pJ) (Joule)
system.mem_ctrls.dram.rank1.selfRefreshEnergy            0                       # Energy for self refresh per rank (pJ) (Joule)
system.mem_ctrls.dram.rank1.totalEnergy    6351992535                       # Total energy per rank (pJ) (Joule)
system.mem_ctrls.dram.rank1.averagePower   490.101685                       # Core power per rank (mW) (Watt)
system.mem_ctrls.dram.rank1.totalIdleTime            0                       # Total Idle time Per DRAM Rank (Tick)
system.mem_ctrls.dram.rank1.pwrStateTime::IDLE   8941299000                       # Time in different power states (Tick)
system.mem_ctrls.dram.rank1.pwrStateTime::REF    432640000                       # Time in different power states (Tick)
system.mem_ctrls.dram.rank1.pwrStateTime::SREF            0                       # Time in different power states (Tick)
system.mem_ctrls.dram.rank1.pwrStateTime::PRE_PDN            0                       # Time in different power states (Tick)
system.mem_ctrls.dram.rank1.pwrStateTime::ACT   3586621500                       # Time in different power states (Tick)
system.mem_ctrls.dram.rank1.pwrStateTime::ACT_PDN            0                       # Time in different power states (Tick)
system.mem_ctrls.power_state.pwrStateResidencyTicks::UNDEFINED  12960560500                       # Cumulative time (in ticks) in various power states (Tick)
system.membus.transDist::ReadResp               63248                       # Transaction distribution (Count)
system.membus.transDist::WritebackDirty          5514                       # Transaction distribution (Count)
system.membus.transDist::WritebackClean         57723                       # Transaction distribution (Count)
system.membus.transDist::CleanEvict               820                       # Transaction distribution (Count)
system.membus.transDist::ReadExReq               3258                       # Transaction distribution (Count)
system.membus.transDist::ReadExResp              3258                       # Transaction distribution (Count)
system.membus.transDist::ReadCleanReq           58170                       # Transaction distribution (Count)
system.membus.transDist::ReadSharedReq           5081                       # Transaction distribution (Count)
system.membus.transDist::InvalidateReq             44                       # Transaction distribution (Count)
system.membus.pktCount_system.cpu.icache.mem_side_port::system.mem_ctrls.port       174061                       # Packet count per connected requestor and responder (Count)
system.membus.pktCount_system.cpu.dcache.mem_side_port::system.mem_ctrls.port        23055                       # Packet count per connected requestor and responder (Count)
system.membus.pktCount::total                  197116                       # Packet count per connected requestor and responder (Count)
system.membus.pktSize_system.cpu.icache.mem_side_port::system.mem_ctrls.port      7417024                       # Cumulative packet size per connected requestor and responder (Byte)
system.membus.pktSize_system.cpu.dcache.mem_side_port::system.mem_ctrls.port       886528                       # Cumulative packet size per connected requestor and responder (Byte)
system.membus.pktSize::total                  8303552                       # Cumulative packet size per connected requestor and responder (Byte)
system.membus.snoops                                0                       # Total snoops (Count)
system.membus.snoopTraffic                          0                       # Total snoop traffic (Byte)
system.membus.snoopFanout::samples              66553                       # Request fanout histogram (Count)
system.membus.snoopFanout::mean              0.000030                       # Request fanout histogram (Count)
system.membus.snoopFanout::stdev             0.005482                       # Request fanout histogram (Count)
system.membus.snoopFanout::underflows               0      0.00%      0.00% # Request fanout histogram (Count)
system.membus.snoopFanout::0                    66551    100.00%    100.00% # Request fanout histogram (Count)
system.membus.snoopFanout::1                        2      0.00%    100.00% # Request fanout histogram (Count)
system.membus.snoopFanout::2                        0      0.00%    100.00% # Request fanout histogram (Count)
system.membus.snoopFanout::3                        0      0.00%    100.00% # Request fanout histogram (Count)
system.membus.snoopFanout::4                        0      0.00%    100.00% # Request fanout histogram (Count)
system.membus.snoopFanout::overflows                0      0.00%    100.00% # Request fanout histogram (Count)
system.membus.snoopFanout::min_value                0                       # Request fanout histogram (Count)
system.membus.snoopFanout::max_value                1                       # Request fanout histogram (Count)
system.membus.snoopFanout::total                66553                       # Request fanout histogram (Count)
system.membus.power_state.pwrStateResidencyTicks::UNDEFINED  12960560500                       # Cumulative time (in ticks) in various power states (Tick)
system.membus.reqLayer0.occupancy           396079500                       # Layer occupancy (ticks) (Tick)
system.membus.reqLayer0.utilization               0.0                       # Layer utilization (Ratio)
system.membus.respLayer1.occupancy          291089250                       # Layer occupancy (ticks) (Tick)
system.membus.respLayer1.utilization              0.0                       # Layer utilization (Ratio)
system.membus.respLayer2.occupancy           44129500                       # Layer occupancy (ticks) (Tick)
system.membus.respLayer2.utilization              0.0                       # Layer utilization (Ratio)
system.membus.snoop_filter.totRequests         130610                       # Total number of requests made to the snoop filter. (Count)
system.membus.snoop_filter.hitSingleRequests        64059                       # Number of requests hitting in the snoop filter with a single holder of the requested data. (Count)
system.membus.snoop_filter.hitMultiRequests            0                       # Number of requests hitting in the snoop filter with multiple (>1) holders of the requested data. (Count)
system.membus.snoop_filter.totSnoops                0                       # Total number of snoops made to the snoop filter. (Count)
system.membus.snoop_filter.hitSingleSnoops            0                       # Number of snoops hitting in the snoop filter with a single holder of the requested data. (Count)
system.membus.snoop_filter.hitMultiSnoops            0                       # Number of snoops hitting in the snoop filter with multiple (>1) holders of the requested data. (Count)
system.voltage_domain.voltage                       1                       # Voltage in Volts (Volt)
system.workload.inst.arm                            0                       # number of arm instructions executed (Count)
system.workload.inst.quiesce                        0                       # number of quiesce instructions executed (Count)

---------- End Simulation Statistics   ----------
