
---------- Begin Simulation Statistics ----------
simSeconds                                   0.026861                       # Number of seconds simulated (Second)
simTicks                                  26860505500                       # Number of ticks simulated (Tick)
finalTick                                 26860505500                       # Number of ticks from beginning of simulation (restored from checkpoints and never reset) (Tick)
simFreq                                  1000000000000                       # The number of ticks per simulated second ((Tick/Second))
hostSeconds                                     87.18                       # Real time elapsed on the host (Second)
hostTickRate                                308119214                       # The number of ticks simulated per host second (ticks/s) ((Tick/Second))
hostMemory                                     640016                       # Number of bytes of host memory used (Byte)
simInsts                                     48982758                       # Number of instructions simulated (Count)
simOps                                       48982773                       # Number of ops (including micro ops) simulated (Count)
hostInstRate                                   561885                       # Simulator instruction rate (inst/s) ((Count/Second))
hostOpRate                                     561885                       # Simulator op (including micro ops) rate (op/s) ((Count/Second))
system.clk_domain.clock                          1000                       # Clock period in ticks (Tick)
system.cpu.numCycles                         53721012                       # Number of cpu cycles simulated (Cycle)
system.cpu.numWorkItemsStarted                      0                       # Number of work items this cpu started (Count)
system.cpu.numWorkItemsCompleted                    0                       # Number of work items this cpu completed (Count)
system.cpu.instsAdded                        53200434                       # Number of instructions added to the IQ (excludes non-spec) (Count)
system.cpu.nonSpecInstsAdded                    33444                       # Number of non-speculative instructions added to the IQ (Count)
system.cpu.instsIssued                       52150601                       # Number of instructions issued (Count)
system.cpu.squashedInstsIssued                  67715                       # Number of squashed instructions issued (Count)
system.cpu.squashedInstsExamined              4251104                       # Number of squashed instructions iterated over during squash; mainly for profiling (Count)
system.cpu.squashedOperandsExamined           1989363                       # Number of squashed operands that are examined and possibly removed from graph (Count)
system.cpu.squashedNonSpecRemoved                4696                       # Number of squashed non-spec instructions that were removed (Count)
system.cpu.numIssuedDist::samples            52841072                       # Number of insts issued each cycle (Count)
system.cpu.numIssuedDist::mean               0.986933                       # Number of insts issued each cycle (Count)
system.cpu.numIssuedDist::stdev              1.722396                       # Number of insts issued each cycle (Count)
system.cpu.numIssuedDist::underflows                0      0.00%      0.00% # Number of insts issued each cycle (Count)
system.cpu.numIssuedDist::0                  33807711     63.98%     63.98% # Number of insts issued each cycle (Count)
system.cpu.numIssuedDist::1                   6245376     11.82%     75.80% # Number of insts issued each cycle (Count)
system.cpu.numIssuedDist::2                   4742899      8.98%     84.77% # Number of insts issued each cycle (Count)
system.cpu.numIssuedDist::3                   2617979      4.95%     89.73% # Number of insts issued each cycle (Count)
system.cpu.numIssuedDist::4                   2032423      3.85%     93.58% # Number of insts issued each cycle (Count)
system.cpu.numIssuedDist::5                   1441963      2.73%     96.30% # Number of insts issued each cycle (Count)
system.cpu.numIssuedDist::6                    923052      1.75%     98.05% # Number of insts issued each cycle (Count)
system.cpu.numIssuedDist::7                    549681      1.04%     99.09% # Number of insts issued each cycle (Count)
system.cpu.numIssuedDist::8                    479988      0.91%    100.00% # Number of insts issued each cycle (Count)
system.cpu.numIssuedDist::overflows                 0      0.00%    100.00% # Number of insts issued each cycle (Count)
system.cpu.numIssuedDist::min_value                 0                       # Number of insts issued each cycle (Count)
system.cpu.numIssuedDist::max_value                 8                       # Number of insts issued each cycle (Count)
system.cpu.numIssuedDist::total              52841072                       # Number of insts issued each cycle (Count)
system.cpu.statFuBusy::No_OpClass                   0      0.00%      0.00% # attempts to use FU when none available (Count)
system.cpu.statFuBusy::IntAlu                  230000     16.14%     16.14% # attempts to use FU when none available (Count)
system.cpu.statFuBusy::IntMult                  81439      5.72%     21.86% # attempts to use FU when none available (Count)
system.cpu.statFuBusy::IntDiv                    1240      0.09%     21.95% # attempts to use FU when none available (Count)
system.cpu.statFuBusy::FloatAdd                     0      0.00%     21.95% # attempts to use FU when none available (Count)
system.cpu.statFuBusy::FloatCmp                     0      0.00%     21.95% # attempts to use FU when none available (Count)
system.cpu.statFuBusy::FloatCvt                     0      0.00%     21.95% # attempts to use FU when none available (Count)
system.cpu.statFuBusy::FloatMult                    0      0.00%     21.95% # attempts to use FU when none available (Count)
system.cpu.statFuBusy::FloatMultAcc                 0      0.00%     21.95% # attempts to use FU when none available (Count)
system.cpu.statFuBusy::FloatDiv                     0      0.00%     21.95% # attempts to use FU when none available (Count)
system.cpu.statFuBusy::FloatMisc                    0      0.00%     21.95% # attempts to use FU when none available (Count)
system.cpu.statFuBusy::FloatSqrt                    0      0.00%     21.95% # attempts to use FU when none available (Count)
system.cpu.statFuBusy::SimdAdd                      0      0.00%     21.95% # attempts to use FU when none available (Count)
system.cpu.statFuBusy::SimdAddAcc                   0      0.00%     21.95% # attempts to use FU when none available (Count)
system.cpu.statFuBusy::SimdAlu                      0      0.00%     21.95% # attempts to use FU when none available (Count)
system.cpu.statFuBusy::SimdCmp                      0      0.00%     21.95% # attempts to use FU when none available (Count)
system.cpu.statFuBusy::SimdCvt                      0      0.00%     21.95% # attempts to use FU when none available (Count)
system.cpu.statFuBusy::SimdMisc                     0      0.00%     21.95% # attempts to use FU when none available (Count)
system.cpu.statFuBusy::SimdMult                     0      0.00%     21.95% # attempts to use FU when none available (Count)
system.cpu.statFuBusy::SimdMultAcc                  0      0.00%     21.95% # attempts to use FU when none available (Count)
system.cpu.statFuBusy::SimdShift                    0      0.00%     21.95% # attempts to use FU when none available (Count)
system.cpu.statFuBusy::SimdShiftAcc                 0      0.00%     21.95% # attempts to use FU when none available (Count)
system.cpu.statFuBusy::SimdDiv                      0      0.00%     21.95% # attempts to use FU when none available (Count)
system.cpu.statFuBusy::SimdSqrt                     0      0.00%     21.95% # attempts to use FU when none available (Count)
system.cpu.statFuBusy::SimdFloatAdd                 0      0.00%     21.95% # attempts to use FU when none available (Count)
system.cpu.statFuBusy::SimdFloatAlu                 0      0.00%     21.95% # attempts to use FU when none available (Count)
system.cpu.statFuBusy::SimdFloatCmp                 0      0.00%     21.95% # attempts to use FU when none available (Count)
system.cpu.statFuBusy::SimdFloatCvt                 0      0.00%     21.95% # attempts to use FU when none available (Count)
system.cpu.statFuBusy::SimdFloatDiv                 0      0.00%     21.95% # attempts to use FU when none available (Count)
system.cpu.statFuBusy::SimdFloatMisc                0      0.00%     21.95% # attempts to use FU when none available (Count)
system.cpu.statFuBusy::SimdFloatMult                0      0.00%     21.95% # attempts to use FU when none available (Count)
system.cpu.statFuBusy::SimdFloatMultAcc             0      0.00%     21.95% # attempts to use FU when none available (Count)
system.cpu.statFuBusy::SimdFloatSqrt                0      0.00%     21.95% # attempts to use FU when none available (Count)
system.cpu.statFuBusy::SimdReduceAdd                0      0.00%     21.95% # attempts to use FU when none available (Count)
system.cpu.statFuBusy::SimdReduceAlu                0      0.00%     21.95% # attempts to use FU when none available (Count)
system.cpu.statFuBusy::SimdReduceCmp                0      0.00%     21.95% # attempts to use FU when none available (Count)
system.cpu.statFuBusy::SimdFloatReduceAdd            0      0.00%     21.95% # attempts to use FU when none available (Count)
system.cpu.statFuBusy::SimdFloatReduceCmp            0      0.00%     21.95% # attempts to use FU when none available (Count)
system.cpu.statFuBusy::SimdAes                      0      0.00%     21.95% # attempts to use FU when none available (Count)
system.cpu.statFuBusy::SimdAesMix                   0      0.00%     21.95% # attempts to use FU when none available (Count)
system.cpu.statFuBusy::SimdSha1Hash                 0      0.00%     21.95% # attempts to use FU when none available (Count)
system.cpu.statFuBusy::SimdSha1Hash2                0      0.00%     21.95% # attempts to use FU when none available (Count)
system.cpu.statFuBusy::SimdSha256Hash               0      0.00%     21.95% # attempts to use FU when none available (Count)
system.cpu.statFuBusy::SimdSha256Hash2              0      0.00%     21.95% # attempts to use FU when none available (Count)
system.cpu.statFuBusy::SimdShaSigma2                0      0.00%     21.95% # attempts to use FU when none available (Count)
system.cpu.statFuBusy::SimdShaSigma3                0      0.00%     21.95% # attempts to use FU when none available (Count)
system.cpu.statFuBusy::SimdPredAlu                  0      0.00%     21.95% # attempts to use FU when none available (Count)
system.cpu.statFuBusy::MemRead                 619943     43.51%     65.46% # attempts to use FU when none available (Count)
system.cpu.statFuBusy::MemWrite                489401     34.35%     99.81% # attempts to use FU when none available (Count)
system.cpu.statFuBusy::FloatMemRead              2678      0.19%    100.00% # attempts to use FU when none available (Count)
system.cpu.statFuBusy::FloatMemWrite                4      0.00%    100.00% # attempts to use FU when none available (Count)
system.cpu.statFuBusy::IprAccess                    0      0.00%    100.00% # attempts to use FU when none available (Count)
system.cpu.statFuBusy::InstPrefetch                 0      0.00%    100.00% # attempts to use FU when none available (Count)
system.cpu.statIssuedInstType_0::No_OpClass        28722      0.06%      0.06% # Number of instructions issued per FU type, per thread (Count)
system.cpu.statIssuedInstType_0::IntAlu      33370796     63.99%     64.04% # Number of instructions issued per FU type, per thread (Count)
system.cpu.statIssuedInstType_0::IntMult       479274      0.92%     64.96% # Number of instructions issued per FU type, per thread (Count)
system.cpu.statIssuedInstType_0::IntDiv        319404      0.61%     65.58% # Number of instructions issued per FU type, per thread (Count)
system.cpu.statIssuedInstType_0::FloatAdd       278548      0.53%     66.11% # Number of instructions issued per FU type, per thread (Count)
system.cpu.statIssuedInstType_0::FloatCmp        16386      0.03%     66.14% # Number of instructions issued per FU type, per thread (Count)
system.cpu.statIssuedInstType_0::FloatCvt        28672      0.05%     66.20% # Number of instructions issued per FU type, per thread (Count)
system.cpu.statIssuedInstType_0::FloatMult       262187      0.50%     66.70% # Number of instructions issued per FU type, per thread (Count)
system.cpu.statIssuedInstType_0::FloatMultAcc            0      0.00%     66.70% # Number of instructions issued per FU type, per thread (Count)
system.cpu.statIssuedInstType_0::FloatDiv            0      0.00%     66.70% # Number of instructions issued per FU type, per thread (Count)
system.cpu.statIssuedInstType_0::FloatMisc         4096      0.01%     66.71% # Number of instructions issued per FU type, per thread (Count)
system.cpu.statIssuedInstType_0::FloatSqrt            0      0.00%     66.71% # Number of instructions issued per FU type, per thread (Count)
system.cpu.statIssuedInstType_0::SimdAdd            0      0.00%     66.71% # Number of instructions issued per FU type, per thread (Count)
system.cpu.statIssuedInstType_0::SimdAddAcc            0      0.00%     66.71% # Number of instructions issued per FU type, per thread (Count)
system.cpu.statIssuedInstType_0::SimdAlu            0      0.00%     66.71% # Number of instructions issued per FU type, per thread (Count)
system.cpu.statIssuedInstType_0::SimdCmp            0      0.00%     66.71% # Number of instructions issued per FU type, per thread (Count)
system.cpu.statIssuedInstType_0::SimdCvt            0      0.00%     66.71% # Number of instructions issued per FU type, per thread (Count)
system.cpu.statIssuedInstType_0::SimdMisc            0      0.00%     66.71% # Number of instructions issued per FU type, per thread (Count)
system.cpu.statIssuedInstType_0::SimdMult            0      0.00%     66.71% # Number of instructions issued per FU type, per thread (Count)
system.cpu.statIssuedInstType_0::SimdMultAcc            0      0.00%     66.71% # Number of instructions issued per FU type, per thread (Count)
system.cpu.statIssuedInstType_0::SimdShift            0      0.00%     66.71% # Number of instructions issued per FU type, per thread (Count)
system.cpu.statIssuedInstType_0::SimdShiftAcc            0      0.00%     66.71% # Number of instructions issued per FU type, per thread (Count)
system.cpu.statIssuedInstType_0::SimdDiv            0      0.00%     66.71% # Number of instructions issued per FU type, per thread (Count)
system.cpu.statIssuedInstType_0::SimdSqrt            0      0.00%     66.71% # Number of instructions issued per FU type, per thread (Count)
system.cpu.statIssuedInstType_0::SimdFloatAdd            0      0.00%     66.71% # Number of instructions issued per FU type, per thread (Count)
system.cpu.statIssuedInstType_0::SimdFloatAlu            0      0.00%     66.71% # Number of instructions issued per FU type, per thread (Count)
system.cpu.statIssuedInstType_0::SimdFloatCmp            0      0.00%     66.71% # Number of instructions issued per FU type, per thread (Count)
system.cpu.statIssuedInstType_0::SimdFloatCvt            0      0.00%     66.71% # Number of instructions issued per FU type, per thread (Count)
system.cpu.statIssuedInstType_0::SimdFloatDiv            0      0.00%     66.71% # Number of instructions issued per FU type, per thread (Count)
system.cpu.statIssuedInstType_0::SimdFloatMisc            0      0.00%     66.71% # Number of instructions issued per FU type, per thread (Count)
system.cpu.statIssuedInstType_0::SimdFloatMult            0      0.00%     66.71% # Number of instructions issued per FU type, per thread (Count)
system.cpu.statIssuedInstType_0::SimdFloatMultAcc            0      0.00%     66.71% # Number of instructions issued per FU type, per thread (Count)
system.cpu.statIssuedInstType_0::SimdFloatSqrt            0      0.00%     66.71% # Number of instructions issued per FU type, per thread (Count)
system.cpu.statIssuedInstType_0::SimdReduceAdd            0      0.00%     66.71% # Number of instructions issued per FU type, per thread (Count)
system.cpu.statIssuedInstType_0::SimdReduceAlu            0      0.00%     66.71% # Number of instructions issued per FU type, per thread (Count)
system.cpu.statIssuedInstType_0::SimdReduceCmp            0      0.00%     66.71% # Number of instructions issued per FU type, per thread (Count)
system.cpu.statIssuedInstType_0::SimdFloatReduceAdd            0      0.00%     66.71% # Number of instructions issued per FU type, per thread (Count)
system.cpu.statIssuedInstType_0::SimdFloatReduceCmp            0      0.00%     66.71% # Number of instructions issued per FU type, per thread (Count)
system.cpu.statIssuedInstType_0::SimdAes            0      0.00%     66.71% # Number of instructions issued per FU type, per thread (Count)
system.cpu.statIssuedInstType_0::SimdAesMix            0      0.00%     66.71% # Number of instructions issued per FU type, per thread (Count)
system.cpu.statIssuedInstType_0::SimdSha1Hash            0      0.00%     66.71% # Number of instructions issued per FU type, per thread (Count)
system.cpu.statIssuedInstType_0::SimdSha1Hash2            0      0.00%     66.71% # Number of instructions issued per FU type, per thread (Count)
system.cpu.statIssuedInstType_0::SimdSha256Hash            0      0.00%     66.71% # Number of instructions issued per FU type, per thread (Count)
system.cpu.statIssuedInstType_0::SimdSha256Hash2            0      0.00%     66.71% # Number of instructions issued per FU type, per thread (Count)
system.cpu.statIssuedInstType_0::SimdShaSigma2            0      0.00%     66.71% # Number of instructions issued per FU type, per thread (Count)
system.cpu.statIssuedInstType_0::SimdShaSigma3            0      0.00%     66.71% # Number of instructions issued per FU type, per thread (Count)
system.cpu.statIssuedInstType_0::SimdPredAlu            0      0.00%     66.71% # Number of instructions issued per FU type, per thread (Count)
system.cpu.statIssuedInstType_0::MemRead     10560116     20.25%     86.96% # Number of instructions issued per FU type, per thread (Count)
system.cpu.statIssuedInstType_0::MemWrite      5056961      9.70%     96.65% # Number of instructions issued per FU type, per thread (Count)
system.cpu.statIssuedInstType_0::FloatMemRead      1163752      2.23%     98.88% # Number of instructions issued per FU type, per thread (Count)
system.cpu.statIssuedInstType_0::FloatMemWrite       581687      1.12%    100.00% # Number of instructions issued per FU type, per thread (Count)
system.cpu.statIssuedInstType_0::IprAccess            0      0.00%    100.00% # Number of instructions issued per FU type, per thread (Count)
system.cpu.statIssuedInstType_0::InstPrefetch            0      0.00%    100.00% # Number of instructions issued per FU type, per thread (Count)
system.cpu.statIssuedInstType_0::total       52150601                       # Number of instructions issued per FU type, per thread (Count)
system.cpu.issueRate                         0.970767                       # Inst issue rate ((Count/Cycle))
system.cpu.fuBusy                             1424705                       # FU busy when requested (Count)
system.cpu.fuBusyRate                        0.027319                       # FU busy rate (busy events/executed inst) ((Count/Count))
system.cpu.intInstQueueReads                153961351                       # Number of integer instruction queue reads (Count)
system.cpu.intInstQueueWrites                55057592                       # Number of integer instruction queue writes (Count)
system.cpu.intInstQueueWakeupAccesses        49317097                       # Number of integer instruction queue wakeup accesses (Count)
system.cpu.fpInstQueueReads                   4673343                       # Number of floating instruction queue reads (Count)
system.cpu.fpInstQueueWrites                  2448638                       # Number of floating instruction queue writes (Count)
system.cpu.fpInstQueueWakeupAccesses          2318098                       # Number of floating instruction queue wakeup accesses (Count)
system.cpu.vecInstQueueReads                        0                       # Number of vector instruction queue reads (Count)
system.cpu.vecInstQueueWrites                       0                       # Number of vector instruction queue writes (Count)
system.cpu.vecInstQueueWakeupAccesses               0                       # Number of vector instruction queue wakeup accesses (Count)
system.cpu.intAluAccesses                    51208574                       # Number of integer alu accesses (Count)
system.cpu.fpAluAccesses                      2338010                       # Number of floating point alu accesses (Count)
system.cpu.vecAluAccesses                           0                       # Number of vector alu accesses (Count)
system.cpu.numInsts                          51822095                       # Number of executed instructions (Count)
system.cpu.numLoadInsts                      11604462                       # Number of load instructions executed (Count)
system.cpu.numSquashedInsts                    328506                       # Number of squashed instructions skipped in execute (Count)
system.cpu.numSwp                                   0                       # Number of swp insts executed (Count)
system.cpu.numNop                                   0                       # Number of nop insts executed (Count)
system.cpu.numRefs                           17229389                       # Number of memory reference insts executed (Count)
system.cpu.numBranches                        9016392                       # Number of branches executed (Count)
system.cpu.numStoreInsts                      5624927                       # Number of stores executed (Count)
system.cpu.numRate                           0.964652                       # Inst execution rate ((Count/Cycle))
system.cpu.timesIdled                           46669                       # Number of times that the entire CPU went into an idle state and unscheduled itself (Count)
system.cpu.idleCycles                          879940                       # Total number of cycles that the CPU has spent unscheduled due to idling (Cycle)
system.cpu.committedInsts                    48982758                       # Number of Instructions Simulated (Count)
system.cpu.committedOps                      48982773                       # Number of Ops (including micro ops) Simulated (Count)
system.cpu.cpi                               1.096733                       # CPI: Cycles Per Instruction ((Cycle/Count))
system.cpu.totalCpi                          1.096733                       # CPI: Total CPI of All Threads ((Cycle/Count))
system.cpu.ipc                               0.911799                       # IPC: Instructions Per Cycle ((Count/Cycle))
system.cpu.totalIpc                          0.911799                       # IPC: Total IPC of All Threads ((Count/Cycle))
system.cpu.intRegfileReads                   64530999                       # Number of integer regfile reads (Count)
system.cpu.intRegfileWrites                  36048966                       # Number of integer regfile writes (Count)
system.cpu.fpRegfileReads                     1712312                       # Number of floating regfile reads (Count)
system.cpu.fpRegfileWrites                    1711938                       # Number of floating regfile writes (Count)
system.cpu.miscRegfileReads                   3461139                       # number of misc regfile reads (Count)
system.cpu.miscRegfileWrites                   589824                       # number of misc regfile writes (Count)
system.cpu.MemDepUnit__0.insertedLoads       11837764                       # Number of loads inserted to the mem dependence unit. (Count)
system.cpu.MemDepUnit__0.insertedStores       5744068                       # Number of stores inserted to the mem dependence unit. (Count)
system.cpu.MemDepUnit__0.conflictingLoads      2776693                       # Number of conflicting loads. (Count)
system.cpu.MemDepUnit__0.conflictingStores      1147629                       # Number of conflicting stores. (Count)
system.cpu.MemDepUnit__1.insertedLoads              0                       # Number of loads inserted to the mem dependence unit. (Count)
system.cpu.MemDepUnit__1.insertedStores             0                       # Number of stores inserted to the mem dependence unit. (Count)
system.cpu.MemDepUnit__1.conflictingLoads            0                       # Number of conflicting loads. (Count)
system.cpu.MemDepUnit__1.conflictingStores            0                       # Number of conflicting stores. (Count)
system.cpu.MemDepUnit__2.insertedLoads              0                       # Number of loads inserted to the mem dependence unit. (Count)
system.cpu.MemDepUnit__2.insertedStores             0                       # Number of stores inserted to the mem dependence unit. (Count)
system.cpu.MemDepUnit__2.conflictingLoads            0                       # Number of conflicting loads. (Count)
system.cpu.MemDepUnit__2.conflictingStores            0                       # Number of conflicting stores. (Count)
system.cpu.MemDepUnit__3.insertedLoads              0                       # Number of loads inserted to the mem dependence unit. (Count)
system.cpu.MemDepUnit__3.insertedStores             0                       # Number of stores inserted to the mem dependence unit. (Count)
system.cpu.MemDepUnit__3.conflictingLoads            0                       # Number of conflicting loads. (Count)
system.cpu.MemDepUnit__3.conflictingStores            0                       # Number of conflicting stores. (Count)
system.cpu.branchPred.lookups                10377782                       # Number of BP lookups (Count)
system.cpu.branchPred.condPredicted           7896735                       # Number of conditional branches predicted (Count)
system.cpu.branchPred.condIncorrect            194562                       # Number of conditional branches incorrect (Count)
system.cpu.branchPred.BTBLookups              5928824                       # Number of BTB lookups (Count)
system.cpu.branchPred.BTBHits                 5904545                       # Number of BTB hits (Count)
system.cpu.branchPred.BTBHitRatio            0.995905                       # BTB Hit Ratio (Ratio)
system.cpu.branchPred.RASUsed                       0                       # Number of times the RAS was used to get a target. (Count)
system.cpu.branchPred.RASIncorrect                  0                       # Number of incorrect RAS predictions. (Count)
system.cpu.branchPred.indirectLookups          601036                       # Number of indirect predictor lookups. (Count)
system.cpu.branchPred.indirectHits             599028                       # Number of indirect target hits. (Count)
system.cpu.branchPred.indirectMisses             2008                       # Number of indirect misses. (Count)
system.cpu.branchPred.indirectMispredicted        19946                       # Number of mispredicted indirect branches. (Count)
system.cpu.commit.commitSquashedInsts         4272894                       # The number of squashed insts skipped by commit (Count)
system.cpu.commit.commitNonSpecStalls           28748                       # The number of times commit has been forced to stall to communicate backwards (Count)
system.cpu.commit.branchMispredicts            182152                       # The number of times a branch was mispredicted (Count)
system.cpu.commit.numCommittedDist::samples     52197541                       # Number of insts commited each cycle (Count)
system.cpu.commit.numCommittedDist::mean     0.938412                       # Number of insts commited each cycle (Count)
system.cpu.commit.numCommittedDist::stdev     2.093607                       # Number of insts commited each cycle (Count)
system.cpu.commit.numCommittedDist::underflows            0      0.00%      0.00% # Number of insts commited each cycle (Count)
system.cpu.commit.numCommittedDist::0        37782563     72.38%     72.38% # Number of insts commited each cycle (Count)
system.cpu.commit.numCommittedDist::1         5467643     10.47%     82.86% # Number of insts commited each cycle (Count)
system.cpu.commit.numCommittedDist::2         2479585      4.75%     87.61% # Number of insts commited each cycle (Count)
system.cpu.commit.numCommittedDist::3         1567094      3.00%     90.61% # Number of insts commited each cycle (Count)
system.cpu.commit.numCommittedDist::4          619559      1.19%     91.80% # Number of insts commited each cycle (Count)
system.cpu.commit.numCommittedDist::5          623714      1.19%     92.99% # Number of insts commited each cycle (Count)
system.cpu.commit.numCommittedDist::6          353727      0.68%     93.67% # Number of insts commited each cycle (Count)
system.cpu.commit.numCommittedDist::7          293738      0.56%     94.23% # Number of insts commited each cycle (Count)
system.cpu.commit.numCommittedDist::8         3009918      5.77%    100.00% # Number of insts commited each cycle (Count)
system.cpu.commit.numCommittedDist::overflows            0      0.00%    100.00% # Number of insts commited each cycle (Count)
system.cpu.commit.numCommittedDist::min_value            0                       # Number of insts commited each cycle (Count)
system.cpu.commit.numCommittedDist::max_value            8                       # Number of insts commited each cycle (Count)
system.cpu.commit.numCommittedDist::total     52197541                       # Number of insts commited each cycle (Count)
system.cpu.commit.instsCommitted             48982758                       # Number of instructions committed (Count)
system.cpu.commit.opsCommitted               48982773                       # Number of ops (including micro ops) committed (Count)
system.cpu.commit.memRefs                    16254198                       # Number of memory references committed (Count)
system.cpu.commit.loads                      10945204                       # Number of loads committed (Count)
system.cpu.commit.amos                             17                       # Number of atomic instructions committed (Count)
system.cpu.commit.membars                          25                       # Number of memory barriers committed (Count)
system.cpu.commit.branches                    8372520                       # Number of branches committed (Count)
system.cpu.commit.vectorInstructions                0                       # Number of committed Vector instructions. (Count)
system.cpu.commit.floating                    2289676                       # Number of committed floating point instructions. (Count)
system.cpu.commit.integer                    47606916                       # Number of committed integer instructions. (Count)
system.cpu.commit.functionCalls               1174802                       # Number of function calls committed. (Count)
system.cpu.commit.committedInstType_0::No_OpClass        24601      0.05%      0.05% # Class of committed instruction (Count)
system.cpu.commit.committedInstType_0::IntAlu     31319113     63.94%     63.99% # Class of committed instruction (Count)
system.cpu.commit.committedInstType_0::IntMult       479222      0.98%     64.97% # Class of committed instruction (Count)
system.cpu.commit.committedInstType_0::IntDiv       315815      0.64%     65.61% # Class of committed instruction (Count)
system.cpu.commit.committedInstType_0::FloatAdd       278528      0.57%     66.18% # Class of committed instruction (Count)
system.cpu.commit.committedInstType_0::FloatCmp        16384      0.03%     66.21% # Class of committed instruction (Count)
system.cpu.commit.committedInstType_0::FloatCvt        28672      0.06%     66.27% # Class of committed instruction (Count)
system.cpu.commit.committedInstType_0::FloatMult       262144      0.54%     66.81% # Class of committed instruction (Count)
system.cpu.commit.committedInstType_0::FloatMultAcc            0      0.00%     66.81% # Class of committed instruction (Count)
system.cpu.commit.committedInstType_0::FloatDiv            0      0.00%     66.81% # Class of committed instruction (Count)
system.cpu.commit.committedInstType_0::FloatMisc         4096      0.01%     66.82% # Class of committed instruction (Count)
system.cpu.commit.committedInstType_0::FloatSqrt            0      0.00%     66.82% # Class of committed instruction (Count)
system.cpu.commit.committedInstType_0::SimdAdd            0      0.00%     66.82% # Class of committed instruction (Count)
system.cpu.commit.committedInstType_0::SimdAddAcc            0      0.00%     66.82% # Class of committed instruction (Count)
system.cpu.commit.committedInstType_0::SimdAlu            0      0.00%     66.82% # Class of committed instruction (Count)
system.cpu.commit.committedInstType_0::SimdCmp            0      0.00%     66.82% # Class of committed instruction (Count)
system.cpu.commit.committedInstType_0::SimdCvt            0      0.00%     66.82% # Class of committed instruction (Count)
system.cpu.commit.committedInstType_0::SimdMisc            0      0.00%     66.82% # Class of committed instruction (Count)
system.cpu.commit.committedInstType_0::SimdMult            0      0.00%     66.82% # Class of committed instruction (Count)
system.cpu.commit.committedInstType_0::SimdMultAcc            0      0.00%     66.82% # Class of committed instruction (Count)
system.cpu.commit.committedInstType_0::SimdShift            0      0.00%     66.82% # Class of committed instruction (Count)
system.cpu.commit.committedInstType_0::SimdShiftAcc            0      0.00%     66.82% # Class of committed instruction (Count)
system.cpu.commit.committedInstType_0::SimdDiv            0      0.00%     66.82% # Class of committed instruction (Count)
system.cpu.commit.committedInstType_0::SimdSqrt            0      0.00%     66.82% # Class of committed instruction (Count)
system.cpu.commit.committedInstType_0::SimdFloatAdd            0      0.00%     66.82% # Class of committed instruction (Count)
system.cpu.commit.committedInstType_0::SimdFloatAlu            0      0.00%     66.82% # Class of committed instruction (Count)
system.cpu.commit.committedInstType_0::SimdFloatCmp            0      0.00%     66.82% # Class of committed instruction (Count)
system.cpu.commit.committedInstType_0::SimdFloatCvt            0      0.00%     66.82% # Class of committed instruction (Count)
system.cpu.commit.committedInstType_0::SimdFloatDiv            0      0.00%     66.82% # Class of committed instruction (Count)
system.cpu.commit.committedInstType_0::SimdFloatMisc            0      0.00%     66.82% # Class of committed instruction (Count)
system.cpu.commit.committedInstType_0::SimdFloatMult            0      0.00%     66.82% # Class of committed instruction (Count)
system.cpu.commit.committedInstType_0::SimdFloatMultAcc            0      0.00%     66.82% # Class of committed instruction (Count)
system.cpu.commit.committedInstType_0::SimdFloatSqrt            0      0.00%     66.82% # Class of committed instruction (Count)
system.cpu.commit.committedInstType_0::SimdReduceAdd            0      0.00%     66.82% # Class of committed instruction (Count)
system.cpu.commit.committedInstType_0::SimdReduceAlu            0      0.00%     66.82% # Class of committed instruction (Count)
system.cpu.commit.committedInstType_0::SimdReduceCmp            0      0.00%     66.82% # Class of committed instruction (Count)
system.cpu.commit.committedInstType_0::SimdFloatReduceAdd            0      0.00%     66.82% # Class of committed instruction (Count)
system.cpu.commit.committedInstType_0::SimdFloatReduceCmp            0      0.00%     66.82% # Class of committed instruction (Count)
system.cpu.commit.committedInstType_0::SimdAes            0      0.00%     66.82% # Class of committed instruction (Count)
system.cpu.commit.committedInstType_0::SimdAesMix            0      0.00%     66.82% # Class of committed instruction (Count)
system.cpu.commit.committedInstType_0::SimdSha1Hash            0      0.00%     66.82% # Class of committed instruction (Count)
system.cpu.commit.committedInstType_0::SimdSha1Hash2            0      0.00%     66.82% # Class of committed instruction (Count)
system.cpu.commit.committedInstType_0::SimdSha256Hash            0      0.00%     66.82% # Class of committed instruction (Count)
system.cpu.commit.committedInstType_0::SimdSha256Hash2            0      0.00%     66.82% # Class of committed instruction (Count)
system.cpu.commit.committedInstType_0::SimdShaSigma2            0      0.00%     66.82% # Class of committed instruction (Count)
system.cpu.commit.committedInstType_0::SimdShaSigma3            0      0.00%     66.82% # Class of committed instruction (Count)
system.cpu.commit.committedInstType_0::SimdPredAlu            0      0.00%     66.82% # Class of committed instruction (Count)
system.cpu.commit.committedInstType_0::MemRead      9818821     20.05%     86.86% # Class of committed instruction (Count)
system.cpu.commit.committedInstType_0::MemWrite      4735525      9.67%     96.53% # Class of committed instruction (Count)
system.cpu.commit.committedInstType_0::FloatMemRead      1126400      2.30%     98.83% # Class of committed instruction (Count)
system.cpu.commit.committedInstType_0::FloatMemWrite       573452      1.17%    100.00% # Class of committed instruction (Count)
system.cpu.commit.committedInstType_0::IprAccess            0      0.00%    100.00% # Class of committed instruction (Count)
system.cpu.commit.committedInstType_0::InstPrefetch            0      0.00%    100.00% # Class of committed instruction (Count)
system.cpu.commit.committedInstType_0::total     48982773                       # Class of committed instruction (Count)
system.cpu.commit.commitEligibleSamples       3009918                       # number cycles where commit BW limit reached (Cycle)
system.cpu.dcache.demandHits::cpu.data       12743087                       # number of demand (read+write) hits (Count)
system.cpu.dcache.demandHits::total          12743087                       # number of demand (read+write) hits (Count)
system.cpu.dcache.overallHits::cpu.data      12743087                       # number of overall hits (Count)
system.cpu.dcache.overallHits::total         12743087                       # number of overall hits (Count)
system.cpu.dcache.demandMisses::cpu.data       353511                       # number of demand (read+write) misses (Count)
system.cpu.dcache.demandMisses::total          353511                       # number of demand (read+write) misses (Count)
system.cpu.dcache.overallMisses::cpu.data       353511                       # number of overall misses (Count)
system.cpu.dcache.overallMisses::total         353511                       # number of overall misses (Count)
system.cpu.dcache.demandMissLatency::cpu.data  19214032056                       # number of demand (read+write) miss ticks (Tick)
system.cpu.dcache.demandMissLatency::total  19214032056                       # number of demand (read+write) miss ticks (Tick)
system.cpu.dcache.overallMissLatency::cpu.data  19214032056                       # number of overall miss ticks (Tick)
system.cpu.dcache.overallMissLatency::total  19214032056                       # number of overall miss ticks (Tick)
system.cpu.dcache.demandAccesses::cpu.data     13096598                       # number of demand (read+write) accesses (Count)
system.cpu.dcache.demandAccesses::total      13096598                       # number of demand (read+write) accesses (Count)
system.cpu.dcache.overallAccesses::cpu.data     13096598                       # number of overall (read+write) accesses (Count)
system.cpu.dcache.overallAccesses::total     13096598                       # number of overall (read+write) accesses (Count)
system.cpu.dcache.demandMissRate::cpu.data     0.026993                       # miss rate for demand accesses (Ratio)
system.cpu.dcache.demandMissRate::total      0.026993                       # miss rate for demand accesses (Ratio)
system.cpu.dcache.overallMissRate::cpu.data     0.026993                       # miss rate for overall accesses (Ratio)
system.cpu.dcache.overallMissRate::total     0.026993                       # miss rate for overall accesses (Ratio)
system.cpu.dcache.demandAvgMissLatency::cpu.data 54352.006178                       # average overall miss latency ((Cycle/Count))
system.cpu.dcache.demandAvgMissLatency::total 54352.006178                       # average overall miss latency ((Cycle/Count))
system.cpu.dcache.overallAvgMissLatency::cpu.data 54352.006178                       # average overall miss latency ((Cycle/Count))
system.cpu.dcache.overallAvgMissLatency::total 54352.006178                       # average overall miss latency ((Cycle/Count))
system.cpu.dcache.blockedCycles::no_mshrs        21836                       # number of cycles access was blocked (Cycle)
system.cpu.dcache.blockedCycles::no_targets           84                       # number of cycles access was blocked (Cycle)
system.cpu.dcache.blockedCauses::no_mshrs          799                       # number of times access was blocked (Count)
system.cpu.dcache.blockedCauses::no_targets            2                       # number of times access was blocked (Count)
system.cpu.dcache.avgBlocked::no_mshrs      27.329161                       # average number of cycles each access was blocked ((Cycle/Count))
system.cpu.dcache.avgBlocked::no_targets           42                       # average number of cycles each access was blocked ((Cycle/Count))
system.cpu.dcache.writebacks::writebacks        15662                       # number of writebacks (Count)
system.cpu.dcache.writebacks::total             15662                       # number of writebacks (Count)
system.cpu.dcache.demandMshrHits::cpu.data        57941                       # number of demand (read+write) MSHR hits (Count)
system.cpu.dcache.demandMshrHits::total         57941                       # number of demand (read+write) MSHR hits (Count)
system.cpu.dcache.overallMshrHits::cpu.data        57941                       # number of overall MSHR hits (Count)
system.cpu.dcache.overallMshrHits::total        57941                       # number of overall MSHR hits (Count)
system.cpu.dcache.demandMshrMisses::cpu.data       295570                       # number of demand (read+write) MSHR misses (Count)
system.cpu.dcache.demandMshrMisses::total       295570                       # number of demand (read+write) MSHR misses (Count)
system.cpu.dcache.overallMshrMisses::cpu.data       295570                       # number of overall MSHR misses (Count)
system.cpu.dcache.overallMshrMisses::total       295570                       # number of overall MSHR misses (Count)
system.cpu.dcache.demandMshrMissLatency::cpu.data  15700828001                       # number of demand (read+write) MSHR miss ticks (Tick)
system.cpu.dcache.demandMshrMissLatency::total  15700828001                       # number of demand (read+write) MSHR miss ticks (Tick)
system.cpu.dcache.overallMshrMissLatency::cpu.data  15700828001                       # number of overall MSHR miss ticks (Tick)
system.cpu.dcache.overallMshrMissLatency::total  15700828001                       # number of overall MSHR miss ticks (Tick)
system.cpu.dcache.demandMshrMissRate::cpu.data     0.022568                       # mshr miss ratio for demand accesses (Ratio)
system.cpu.dcache.demandMshrMissRate::total     0.022568                       # mshr miss ratio for demand accesses (Ratio)
system.cpu.dcache.overallMshrMissRate::cpu.data     0.022568                       # mshr miss ratio for overall accesses (Ratio)
system.cpu.dcache.overallMshrMissRate::total     0.022568                       # mshr miss ratio for overall accesses (Ratio)
system.cpu.dcache.demandAvgMshrMissLatency::cpu.data 53120.506144                       # average overall mshr miss latency ((Cycle/Count))
system.cpu.dcache.demandAvgMshrMissLatency::total 53120.506144                       # average overall mshr miss latency ((Cycle/Count))
system.cpu.dcache.overallAvgMshrMissLatency::cpu.data 53120.506144                       # average overall mshr miss latency ((Cycle/Count))
system.cpu.dcache.overallAvgMshrMissLatency::total 53120.506144                       # average overall mshr miss latency ((Cycle/Count))
system.cpu.dcache.replacements                 295316                       # number of replacements (Count)
system.cpu.dcache.LoadLockedReq.hits::cpu.data            9                       # number of LoadLockedReq hits (Count)
system.cpu.dcache.LoadLockedReq.hits::total            9                       # number of LoadLockedReq hits (Count)
system.cpu.dcache.LoadLockedReq.misses::cpu.data            4                       # number of LoadLockedReq misses (Count)
system.cpu.dcache.LoadLockedReq.misses::total            4                       # number of LoadLockedReq misses (Count)
system.cpu.dcache.LoadLockedReq.missLatency::cpu.data       290500                       # number of LoadLockedReq miss ticks (Tick)
system.cpu.dcache.LoadLockedReq.missLatency::total       290500                       # number of LoadLockedReq miss ticks (Tick)
system.cpu.dcache.LoadLockedReq.accesses::cpu.data           13                       # number of LoadLockedReq accesses(hits+misses) (Count)
system.cpu.dcache.LoadLockedReq.accesses::total           13                       # number of LoadLockedReq accesses(hits+misses) (Count)
system.cpu.dcache.LoadLockedReq.missRate::cpu.data     0.307692                       # miss rate for LoadLockedReq accesses (Ratio)
system.cpu.dcache.LoadLockedReq.missRate::total     0.307692                       # miss rate for LoadLockedReq accesses (Ratio)
system.cpu.dcache.LoadLockedReq.avgMissLatency::cpu.data        72625                       # average LoadLockedReq miss latency ((Tick/Count))
system.cpu.dcache.LoadLockedReq.avgMissLatency::total        72625                       # average LoadLockedReq miss latency ((Tick/Count))
system.cpu.dcache.LoadLockedReq.mshrHits::cpu.data            2                       # number of LoadLockedReq MSHR hits (Count)
system.cpu.dcache.LoadLockedReq.mshrHits::total            2                       # number of LoadLockedReq MSHR hits (Count)
system.cpu.dcache.LoadLockedReq.mshrMisses::cpu.data            2                       # number of LoadLockedReq MSHR misses (Count)
system.cpu.dcache.LoadLockedReq.mshrMisses::total            2                       # number of LoadLockedReq MSHR misses (Count)
system.cpu.dcache.LoadLockedReq.mshrMissLatency::cpu.data       165500                       # number of LoadLockedReq MSHR miss ticks (Tick)
system.cpu.dcache.LoadLockedReq.mshrMissLatency::total       165500                       # number of LoadLockedReq MSHR miss ticks (Tick)
system.cpu.dcache.LoadLockedReq.mshrMissRate::cpu.data     0.153846                       # mshr miss rate for LoadLockedReq accesses (Ratio)
system.cpu.dcache.LoadLockedReq.mshrMissRate::total     0.153846                       # mshr miss rate for LoadLockedReq accesses (Ratio)
system.cpu.dcache.LoadLockedReq.avgMshrMissLatency::cpu.data        82750                       # average LoadLockedReq mshr miss latency ((Tick/Count))
system.cpu.dcache.LoadLockedReq.avgMshrMissLatency::total        82750                       # average LoadLockedReq mshr miss latency ((Tick/Count))
system.cpu.dcache.ReadReq.hits::cpu.data      7455136                       # number of ReadReq hits (Count)
system.cpu.dcache.ReadReq.hits::total         7455136                       # number of ReadReq hits (Count)
system.cpu.dcache.ReadReq.misses::cpu.data       332494                       # number of ReadReq misses (Count)
system.cpu.dcache.ReadReq.misses::total        332494                       # number of ReadReq misses (Count)
system.cpu.dcache.ReadReq.missLatency::cpu.data  18116256000                       # number of ReadReq miss ticks (Tick)
system.cpu.dcache.ReadReq.missLatency::total  18116256000                       # number of ReadReq miss ticks (Tick)
system.cpu.dcache.ReadReq.accesses::cpu.data      7787630                       # number of ReadReq accesses(hits+misses) (Count)
system.cpu.dcache.ReadReq.accesses::total      7787630                       # number of ReadReq accesses(hits+misses) (Count)
system.cpu.dcache.ReadReq.missRate::cpu.data     0.042695                       # miss rate for ReadReq accesses (Ratio)
system.cpu.dcache.ReadReq.missRate::total     0.042695                       # miss rate for ReadReq accesses (Ratio)
system.cpu.dcache.ReadReq.avgMissLatency::cpu.data 54485.963656                       # average ReadReq miss latency ((Tick/Count))
system.cpu.dcache.ReadReq.avgMissLatency::total 54485.963656                       # average ReadReq miss latency ((Tick/Count))
system.cpu.dcache.ReadReq.mshrHits::cpu.data        44712                       # number of ReadReq MSHR hits (Count)
system.cpu.dcache.ReadReq.mshrHits::total        44712                       # number of ReadReq MSHR hits (Count)
system.cpu.dcache.ReadReq.mshrMisses::cpu.data       287782                       # number of ReadReq MSHR misses (Count)
system.cpu.dcache.ReadReq.mshrMisses::total       287782                       # number of ReadReq MSHR misses (Count)
system.cpu.dcache.ReadReq.mshrMissLatency::cpu.data  15370976500                       # number of ReadReq MSHR miss ticks (Tick)
system.cpu.dcache.ReadReq.mshrMissLatency::total  15370976500                       # number of ReadReq MSHR miss ticks (Tick)
system.cpu.dcache.ReadReq.mshrMissRate::cpu.data     0.036954                       # mshr miss rate for ReadReq accesses (Ratio)
system.cpu.dcache.ReadReq.mshrMissRate::total     0.036954                       # mshr miss rate for ReadReq accesses (Ratio)
system.cpu.dcache.ReadReq.avgMshrMissLatency::cpu.data 53411.876003                       # average ReadReq mshr miss latency ((Tick/Count))
system.cpu.dcache.ReadReq.avgMshrMissLatency::total 53411.876003                       # average ReadReq mshr miss latency ((Tick/Count))
system.cpu.dcache.StoreCondReq.hits::cpu.data            9                       # number of StoreCondReq hits (Count)
system.cpu.dcache.StoreCondReq.hits::total            9                       # number of StoreCondReq hits (Count)
system.cpu.dcache.StoreCondReq.accesses::cpu.data            9                       # number of StoreCondReq accesses(hits+misses) (Count)
system.cpu.dcache.StoreCondReq.accesses::total            9                       # number of StoreCondReq accesses(hits+misses) (Count)
system.cpu.dcache.SwapReq.hits::cpu.data           16                       # number of SwapReq hits (Count)
system.cpu.dcache.SwapReq.hits::total              16                       # number of SwapReq hits (Count)
system.cpu.dcache.SwapReq.misses::cpu.data            1                       # number of SwapReq misses (Count)
system.cpu.dcache.SwapReq.misses::total             1                       # number of SwapReq misses (Count)
system.cpu.dcache.SwapReq.missLatency::cpu.data        54999                       # number of SwapReq miss ticks (Tick)
system.cpu.dcache.SwapReq.missLatency::total        54999                       # number of SwapReq miss ticks (Tick)
system.cpu.dcache.SwapReq.accesses::cpu.data           17                       # number of SwapReq accesses(hits+misses) (Count)
system.cpu.dcache.SwapReq.accesses::total           17                       # number of SwapReq accesses(hits+misses) (Count)
system.cpu.dcache.SwapReq.missRate::cpu.data     0.058824                       # miss rate for SwapReq accesses (Ratio)
system.cpu.dcache.SwapReq.missRate::total     0.058824                       # miss rate for SwapReq accesses (Ratio)
system.cpu.dcache.SwapReq.avgMissLatency::cpu.data        54999                       # average SwapReq miss latency ((Tick/Count))
system.cpu.dcache.SwapReq.avgMissLatency::total        54999                       # average SwapReq miss latency ((Tick/Count))
system.cpu.dcache.SwapReq.mshrMisses::cpu.data            1                       # number of SwapReq MSHR misses (Count)
system.cpu.dcache.SwapReq.mshrMisses::total            1                       # number of SwapReq MSHR misses (Count)
system.cpu.dcache.SwapReq.mshrMissLatency::cpu.data        53999                       # number of SwapReq MSHR miss ticks (Tick)
system.cpu.dcache.SwapReq.mshrMissLatency::total        53999                       # number of SwapReq MSHR miss ticks (Tick)
system.cpu.dcache.SwapReq.mshrMissRate::cpu.data     0.058824                       # mshr miss rate for SwapReq accesses (Ratio)
system.cpu.dcache.SwapReq.mshrMissRate::total     0.058824                       # mshr miss rate for SwapReq accesses (Ratio)
system.cpu.dcache.SwapReq.avgMshrMissLatency::cpu.data        53999                       # average SwapReq mshr miss latency ((Tick/Count))
system.cpu.dcache.SwapReq.avgMshrMissLatency::total        53999                       # average SwapReq mshr miss latency ((Tick/Count))
system.cpu.dcache.WriteReq.hits::cpu.data      5287951                       # number of WriteReq hits (Count)
system.cpu.dcache.WriteReq.hits::total        5287951                       # number of WriteReq hits (Count)
system.cpu.dcache.WriteReq.misses::cpu.data        21017                       # number of WriteReq misses (Count)
system.cpu.dcache.WriteReq.misses::total        21017                       # number of WriteReq misses (Count)
system.cpu.dcache.WriteReq.missLatency::cpu.data   1097776056                       # number of WriteReq miss ticks (Tick)
system.cpu.dcache.WriteReq.missLatency::total   1097776056                       # number of WriteReq miss ticks (Tick)
system.cpu.dcache.WriteReq.accesses::cpu.data      5308968                       # number of WriteReq accesses(hits+misses) (Count)
system.cpu.dcache.WriteReq.accesses::total      5308968                       # number of WriteReq accesses(hits+misses) (Count)
system.cpu.dcache.WriteReq.missRate::cpu.data     0.003959                       # miss rate for WriteReq accesses (Ratio)
system.cpu.dcache.WriteReq.missRate::total     0.003959                       # miss rate for WriteReq accesses (Ratio)
system.cpu.dcache.WriteReq.avgMissLatency::cpu.data 52232.766618                       # average WriteReq miss latency ((Tick/Count))
system.cpu.dcache.WriteReq.avgMissLatency::total 52232.766618                       # average WriteReq miss latency ((Tick/Count))
system.cpu.dcache.WriteReq.mshrHits::cpu.data        13229                       # number of WriteReq MSHR hits (Count)
system.cpu.dcache.WriteReq.mshrHits::total        13229                       # number of WriteReq MSHR hits (Count)
system.cpu.dcache.WriteReq.mshrMisses::cpu.data         7788                       # number of WriteReq MSHR misses (Count)
system.cpu.dcache.WriteReq.mshrMisses::total         7788                       # number of WriteReq MSHR misses (Count)
system.cpu.dcache.WriteReq.mshrMissLatency::cpu.data    329851501                       # number of WriteReq MSHR miss ticks (Tick)
system.cpu.dcache.WriteReq.mshrMissLatency::total    329851501                       # number of WriteReq MSHR miss ticks (Tick)
system.cpu.dcache.WriteReq.mshrMissRate::cpu.data     0.001467                       # mshr miss rate for WriteReq accesses (Ratio)
system.cpu.dcache.WriteReq.mshrMissRate::total     0.001467                       # mshr miss rate for WriteReq accesses (Ratio)
system.cpu.dcache.WriteReq.avgMshrMissLatency::cpu.data 42353.813688                       # average WriteReq mshr miss latency ((Tick/Count))
system.cpu.dcache.WriteReq.avgMshrMissLatency::total 42353.813688                       # average WriteReq mshr miss latency ((Tick/Count))
system.cpu.dcache.power_state.pwrStateResidencyTicks::UNDEFINED  26860505500                       # Cumulative time (in ticks) in various power states (Tick)
system.cpu.dcache.tags.tagsInUse           255.928154                       # Average ticks per tags in use ((Tick/Count))
system.cpu.dcache.tags.totalRefs             13038693                       # Total number of references to valid blocks. (Count)
system.cpu.dcache.tags.sampledRefs             295572                       # Sample count of references to valid blocks. (Count)
system.cpu.dcache.tags.avgRefs              44.113424                       # Average number of references to valid blocks. ((Count/Count))
system.cpu.dcache.tags.warmupTick              202000                       # The tick when the warmup percentage was hit. (Tick)
system.cpu.dcache.tags.occupancies::cpu.data   255.928154                       # Average occupied blocks per tick, per requestor ((Count/Tick))
system.cpu.dcache.tags.avgOccs::cpu.data     0.999719                       # Average percentage of cache occupancy ((Ratio/Tick))
system.cpu.dcache.tags.avgOccs::total        0.999719                       # Average percentage of cache occupancy ((Ratio/Tick))
system.cpu.dcache.tags.occupanciesTaskId::1024          256                       # Occupied blocks per task id (Count)
system.cpu.dcache.tags.ageTaskId_1024::0          107                       # Occupied blocks per task id, per block age (Count)
system.cpu.dcache.tags.ageTaskId_1024::1          149                       # Occupied blocks per task id, per block age (Count)
system.cpu.dcache.tags.ratioOccsTaskId::1024            1                       # Ratio of occupied blocks and all blocks, per task id (Ratio)
system.cpu.dcache.tags.tagAccesses           26488846                       # Number of tag accesses (Count)
system.cpu.dcache.tags.dataAccesses          26488846                       # Number of data accesses (Count)
system.cpu.dcache.tags.power_state.pwrStateResidencyTicks::UNDEFINED  26860505500                       # Cumulative time (in ticks) in various power states (Tick)
system.cpu.decode.idleCycles                  6337446                       # Number of cycles decode is idle (Cycle)
system.cpu.decode.blockedCycles              36227561                       # Number of cycles decode is blocked (Cycle)
system.cpu.decode.runCycles                   8560034                       # Number of cycles decode is running (Cycle)
system.cpu.decode.unblockCycles               1516736                       # Number of cycles decode is unblocking (Cycle)
system.cpu.decode.squashCycles                 199295                       # Number of cycles decode is squashing (Cycle)
system.cpu.decode.branchResolved              5686202                       # Number of times decode resolved a branch (Count)
system.cpu.decode.branchMispred                 12423                       # Number of times decode detected a branch misprediction (Count)
system.cpu.decode.decodedInsts               55195815                       # Number of instructions handled by decode (Count)
system.cpu.decode.squashedInsts                 46327                       # Number of squashed instructions handled by decode (Count)
system.cpu.dtb_walker_cache.blockedCycles::no_mshrs            0                       # number of cycles access was blocked (Cycle)
system.cpu.dtb_walker_cache.blockedCycles::no_targets            0                       # number of cycles access was blocked (Cycle)
system.cpu.dtb_walker_cache.blockedCauses::no_mshrs            0                       # number of times access was blocked (Count)
system.cpu.dtb_walker_cache.blockedCauses::no_targets            0                       # number of times access was blocked (Count)
system.cpu.dtb_walker_cache.avgBlocked::no_mshrs          nan                       # average number of cycles each access was blocked ((Cycle/Count))
system.cpu.dtb_walker_cache.avgBlocked::no_targets          nan                       # average number of cycles each access was blocked ((Cycle/Count))
system.cpu.dtb_walker_cache.replacements            0                       # number of replacements (Count)
system.cpu.dtb_walker_cache.power_state.pwrStateResidencyTicks::UNDEFINED  26860505500                       # Cumulative time (in ticks) in various power states (Tick)
system.cpu.dtb_walker_cache.tags.tagsInUse            0                       # Average ticks per tags in use ((Tick/Count))
system.cpu.dtb_walker_cache.tags.totalRefs            0                       # Total number of references to valid blocks. (Count)
system.cpu.dtb_walker_cache.tags.sampledRefs            0                       # Sample count of references to valid blocks. (Count)
system.cpu.dtb_walker_cache.tags.avgRefs          nan                       # Average number of references to valid blocks. ((Count/Count))
system.cpu.dtb_walker_cache.tags.warmupTick            0                       # The tick when the warmup percentage was hit. (Tick)
system.cpu.dtb_walker_cache.tags.tagAccesses            0                       # Number of tag accesses (Count)
system.cpu.dtb_walker_cache.tags.dataAccesses            0                       # Number of data accesses (Count)
system.cpu.dtb_walker_cache.tags.power_state.pwrStateResidencyTicks::UNDEFINED  26860505500                       # Cumulative time (in ticks) in various power states (Tick)
system.cpu.fetch.icacheStallCycles            8005128                       # Number of cycles fetch is stalled on an Icache miss (Cycle)
system.cpu.fetch.insts                       57499583                       # Number of instructions fetch has processed (Count)
system.cpu.fetch.branches                    10377782                       # Number of branches that fetch encountered (Count)
system.cpu.fetch.predictedBranches            6503573                       # Number of branches that fetch has predicted taken (Count)
system.cpu.fetch.cycles                      44623861                       # Number of cycles fetch has run and was not squashing or blocked (Cycle)
system.cpu.fetch.squashCycles                  423410                       # Number of cycles fetch has spent squashing (Cycle)
system.cpu.fetch.miscStallCycles                  258                       # Number of cycles fetch has spent waiting on interrupts, or bad addresses, or out of MSHRs (Cycle)
system.cpu.fetch.icacheWaitRetryStallCycles          120                       # Number of stall cycles due to full MSHR (Cycle)
system.cpu.fetch.cacheLines                   6249733                       # Number of cache lines fetched (Count)
system.cpu.fetch.icacheSquashes                 83384                       # Number of outstanding Icache misses that were squashed (Count)
system.cpu.fetch.nisnDist::samples           52841072                       # Number of instructions fetched each cycle (Total) (Count)
system.cpu.fetch.nisnDist::mean              1.088162                       # Number of instructions fetched each cycle (Total) (Count)
system.cpu.fetch.nisnDist::stdev             2.366086                       # Number of instructions fetched each cycle (Total) (Count)
system.cpu.fetch.nisnDist::underflows               0      0.00%      0.00% # Number of instructions fetched each cycle (Total) (Count)
system.cpu.fetch.nisnDist::0                 41243282     78.05%     78.05% # Number of instructions fetched each cycle (Total) (Count)
system.cpu.fetch.nisnDist::1                  1048086      1.98%     80.04% # Number of instructions fetched each cycle (Total) (Count)
system.cpu.fetch.nisnDist::2                  1747640      3.31%     83.34% # Number of instructions fetched each cycle (Total) (Count)
system.cpu.fetch.nisnDist::3                  1136606      2.15%     85.49% # Number of instructions fetched each cycle (Total) (Count)
system.cpu.fetch.nisnDist::4                  1556081      2.94%     88.44% # Number of instructions fetched each cycle (Total) (Count)
system.cpu.fetch.nisnDist::5                   990963      1.88%     90.31% # Number of instructions fetched each cycle (Total) (Count)
system.cpu.fetch.nisnDist::6                   787124      1.49%     91.80% # Number of instructions fetched each cycle (Total) (Count)
system.cpu.fetch.nisnDist::7                  1005730      1.90%     93.71% # Number of instructions fetched each cycle (Total) (Count)
system.cpu.fetch.nisnDist::8                  3325560      6.29%    100.00% # Number of instructions fetched each cycle (Total) (Count)
system.cpu.fetch.nisnDist::overflows                0      0.00%    100.00% # Number of instructions fetched each cycle (Total) (Count)
system.cpu.fetch.nisnDist::min_value                0                       # Number of instructions fetched each cycle (Total) (Count)
system.cpu.fetch.nisnDist::max_value                8                       # Number of instructions fetched each cycle (Total) (Count)
system.cpu.fetch.nisnDist::total             52841072                       # Number of instructions fetched each cycle (Total) (Count)
system.cpu.fetch.branchRate                  0.193179                       # Number of branch fetches per cycle (Ratio)
system.cpu.fetch.rate                        1.070337                       # Number of inst fetches per cycle ((Count/Cycle))
system.cpu.icache.demandHits::cpu.inst        6189069                       # number of demand (read+write) hits (Count)
system.cpu.icache.demandHits::total           6189069                       # number of demand (read+write) hits (Count)
system.cpu.icache.overallHits::cpu.inst       6189069                       # number of overall hits (Count)
system.cpu.icache.overallHits::total          6189069                       # number of overall hits (Count)
system.cpu.icache.demandMisses::cpu.inst        60661                       # number of demand (read+write) misses (Count)
system.cpu.icache.demandMisses::total           60661                       # number of demand (read+write) misses (Count)
system.cpu.icache.overallMisses::cpu.inst        60661                       # number of overall misses (Count)
system.cpu.icache.overallMisses::total          60661                       # number of overall misses (Count)
system.cpu.icache.demandMissLatency::cpu.inst   1428795497                       # number of demand (read+write) miss ticks (Tick)
system.cpu.icache.demandMissLatency::total   1428795497                       # number of demand (read+write) miss ticks (Tick)
system.cpu.icache.overallMissLatency::cpu.inst   1428795497                       # number of overall miss ticks (Tick)
system.cpu.icache.overallMissLatency::total   1428795497                       # number of overall miss ticks (Tick)
system.cpu.icache.demandAccesses::cpu.inst      6249730                       # number of demand (read+write) accesses (Count)
system.cpu.icache.demandAccesses::total       6249730                       # number of demand (read+write) accesses (Count)
system.cpu.icache.overallAccesses::cpu.inst      6249730                       # number of overall (read+write) accesses (Count)
system.cpu.icache.overallAccesses::total      6249730                       # number of overall (read+write) accesses (Count)
system.cpu.icache.demandMissRate::cpu.inst     0.009706                       # miss rate for demand accesses (Ratio)
system.cpu.icache.demandMissRate::total      0.009706                       # miss rate for demand accesses (Ratio)
system.cpu.icache.overallMissRate::cpu.inst     0.009706                       # miss rate for overall accesses (Ratio)
system.cpu.icache.overallMissRate::total     0.009706                       # miss rate for overall accesses (Ratio)
system.cpu.icache.demandAvgMissLatency::cpu.inst 23553.774204                       # average overall miss latency ((Cycle/Count))
system.cpu.icache.demandAvgMissLatency::total 23553.774204                       # average overall miss latency ((Cycle/Count))
system.cpu.icache.overallAvgMissLatency::cpu.inst 23553.774204                       # average overall miss latency ((Cycle/Count))
system.cpu.icache.overallAvgMissLatency::total 23553.774204                       # average overall miss latency ((Cycle/Count))
system.cpu.icache.blockedCycles::no_mshrs         1709                       # number of cycles access was blocked (Cycle)
system.cpu.icache.blockedCycles::no_targets            0                       # number of cycles access was blocked (Cycle)
system.cpu.icache.blockedCauses::no_mshrs           27                       # number of times access was blocked (Count)
system.cpu.icache.blockedCauses::no_targets            0                       # number of times access was blocked (Count)
system.cpu.icache.avgBlocked::no_mshrs      63.296296                       # average number of cycles each access was blocked ((Cycle/Count))
system.cpu.icache.avgBlocked::no_targets          nan                       # average number of cycles each access was blocked ((Cycle/Count))
system.cpu.icache.writebacks::writebacks        57729                       # number of writebacks (Count)
system.cpu.icache.writebacks::total             57729                       # number of writebacks (Count)
system.cpu.icache.demandMshrHits::cpu.inst         2485                       # number of demand (read+write) MSHR hits (Count)
system.cpu.icache.demandMshrHits::total          2485                       # number of demand (read+write) MSHR hits (Count)
system.cpu.icache.overallMshrHits::cpu.inst         2485                       # number of overall MSHR hits (Count)
system.cpu.icache.overallMshrHits::total         2485                       # number of overall MSHR hits (Count)
system.cpu.icache.demandMshrMisses::cpu.inst        58176                       # number of demand (read+write) MSHR misses (Count)
system.cpu.icache.demandMshrMisses::total        58176                       # number of demand (read+write) MSHR misses (Count)
system.cpu.icache.overallMshrMisses::cpu.inst        58176                       # number of overall MSHR misses (Count)
system.cpu.icache.overallMshrMisses::total        58176                       # number of overall MSHR misses (Count)
system.cpu.icache.demandMshrMissLatency::cpu.inst   1326420998                       # number of demand (read+write) MSHR miss ticks (Tick)
system.cpu.icache.demandMshrMissLatency::total   1326420998                       # number of demand (read+write) MSHR miss ticks (Tick)
system.cpu.icache.overallMshrMissLatency::cpu.inst   1326420998                       # number of overall MSHR miss ticks (Tick)
system.cpu.icache.overallMshrMissLatency::total   1326420998                       # number of overall MSHR miss ticks (Tick)
system.cpu.icache.demandMshrMissRate::cpu.inst     0.009309                       # mshr miss ratio for demand accesses (Ratio)
system.cpu.icache.demandMshrMissRate::total     0.009309                       # mshr miss ratio for demand accesses (Ratio)
system.cpu.icache.overallMshrMissRate::cpu.inst     0.009309                       # mshr miss ratio for overall accesses (Ratio)
system.cpu.icache.overallMshrMissRate::total     0.009309                       # mshr miss ratio for overall accesses (Ratio)
system.cpu.icache.demandAvgMshrMissLatency::cpu.inst 22800.140917                       # average overall mshr miss latency ((Cycle/Count))
system.cpu.icache.demandAvgMshrMissLatency::total 22800.140917                       # average overall mshr miss latency ((Cycle/Count))
system.cpu.icache.overallAvgMshrMissLatency::cpu.inst 22800.140917                       # average overall mshr miss latency ((Cycle/Count))
system.cpu.icache.overallAvgMshrMissLatency::total 22800.140917                       # average overall mshr miss latency ((Cycle/Count))
system.cpu.icache.replacements                  57729                       # number of replacements (Count)
system.cpu.icache.ReadReq.hits::cpu.inst      6189069                       # number of ReadReq hits (Count)
system.cpu.icache.ReadReq.hits::total         6189069                       # number of ReadReq hits (Count)
system.cpu.icache.ReadReq.misses::cpu.inst        60661                       # number of ReadReq misses (Count)
system.cpu.icache.ReadReq.misses::total         60661                       # number of ReadReq misses (Count)
system.cpu.icache.ReadReq.missLatency::cpu.inst   1428795497                       # number of ReadReq miss ticks (Tick)
system.cpu.icache.ReadReq.missLatency::total   1428795497                       # number of ReadReq miss ticks (Tick)
system.cpu.icache.ReadReq.accesses::cpu.inst      6249730                       # number of ReadReq accesses(hits+misses) (Count)
system.cpu.icache.ReadReq.accesses::total      6249730                       # number of ReadReq accesses(hits+misses) (Count)
system.cpu.icache.ReadReq.missRate::cpu.inst     0.009706                       # miss rate for ReadReq accesses (Ratio)
system.cpu.icache.ReadReq.missRate::total     0.009706                       # miss rate for ReadReq accesses (Ratio)
system.cpu.icache.ReadReq.avgMissLatency::cpu.inst 23553.774204                       # average ReadReq miss latency ((Tick/Count))
system.cpu.icache.ReadReq.avgMissLatency::total 23553.774204                       # average ReadReq miss latency ((Tick/Count))
system.cpu.icache.ReadReq.mshrHits::cpu.inst         2485                       # number of ReadReq MSHR hits (Count)
system.cpu.icache.ReadReq.mshrHits::total         2485                       # number of ReadReq MSHR hits (Count)
system.cpu.icache.ReadReq.mshrMisses::cpu.inst        58176                       # number of ReadReq MSHR misses (Count)
system.cpu.icache.ReadReq.mshrMisses::total        58176                       # number of ReadReq MSHR misses (Count)
system.cpu.icache.ReadReq.mshrMissLatency::cpu.inst   1326420998                       # number of ReadReq MSHR miss ticks (Tick)
system.cpu.icache.ReadReq.mshrMissLatency::total   1326420998                       # number of ReadReq MSHR miss ticks (Tick)
system.cpu.icache.ReadReq.mshrMissRate::cpu.inst     0.009309                       # mshr miss rate for ReadReq accesses (Ratio)
system.cpu.icache.ReadReq.mshrMissRate::total     0.009309                       # mshr miss rate for ReadReq accesses (Ratio)
system.cpu.icache.ReadReq.avgMshrMissLatency::cpu.inst 22800.140917                       # average ReadReq mshr miss latency ((Tick/Count))
system.cpu.icache.ReadReq.avgMshrMissLatency::total 22800.140917                       # average ReadReq mshr miss latency ((Tick/Count))
system.cpu.icache.power_state.pwrStateResidencyTicks::UNDEFINED  26860505500                       # Cumulative time (in ticks) in various power states (Tick)
system.cpu.icache.tags.tagsInUse           361.269429                       # Average ticks per tags in use ((Tick/Count))
system.cpu.icache.tags.totalRefs              6247243                       # Total number of references to valid blocks. (Count)
system.cpu.icache.tags.sampledRefs              58174                       # Sample count of references to valid blocks. (Count)
system.cpu.icache.tags.avgRefs             107.388919                       # Average number of references to valid blocks. ((Count/Count))
system.cpu.icache.tags.warmupTick               77000                       # The tick when the warmup percentage was hit. (Tick)
system.cpu.icache.tags.occupancies::cpu.inst   361.269429                       # Average occupied blocks per tick, per requestor ((Count/Tick))
system.cpu.icache.tags.avgOccs::cpu.inst     0.705604                       # Average percentage of cache occupancy ((Ratio/Tick))
system.cpu.icache.tags.avgOccs::total        0.705604                       # Average percentage of cache occupancy ((Ratio/Tick))
system.cpu.icache.tags.occupanciesTaskId::1024          445                       # Occupied blocks per task id (Count)
system.cpu.icache.tags.ageTaskId_1024::0          104                       # Occupied blocks per task id, per block age (Count)
system.cpu.icache.tags.ageTaskId_1024::1           24                       # Occupied blocks per task id, per block age (Count)
system.cpu.icache.tags.ageTaskId_1024::2            1                       # Occupied blocks per task id, per block age (Count)
system.cpu.icache.tags.ageTaskId_1024::3          146                       # Occupied blocks per task id, per block age (Count)
system.cpu.icache.tags.ageTaskId_1024::4          170                       # Occupied blocks per task id, per block age (Count)
system.cpu.icache.tags.ratioOccsTaskId::1024     0.869141                       # Ratio of occupied blocks and all blocks, per task id (Ratio)
system.cpu.icache.tags.tagAccesses           12557634                       # Number of tag accesses (Count)
system.cpu.icache.tags.dataAccesses          12557634                       # Number of data accesses (Count)
system.cpu.icache.tags.power_state.pwrStateResidencyTicks::UNDEFINED  26860505500                       # Cumulative time (in ticks) in various power states (Tick)
system.cpu.iew.idleCycles                           0                       # Number of cycles IEW is idle (Cycle)
system.cpu.iew.squashCycles                    199295                       # Number of cycles IEW is squashing (Cycle)
system.cpu.iew.blockCycles                     658489                       # Number of cycles IEW is blocking (Cycle)
system.cpu.iew.unblockCycles                 26300506                       # Number of cycles IEW is unblocking (Cycle)
system.cpu.iew.dispatchedInsts               53233878                       # Number of instructions dispatched to IQ (Count)
system.cpu.iew.dispSquashedInsts               150644                       # Number of squashed instructions skipped by dispatch (Count)
system.cpu.iew.dispLoadInsts                 11837764                       # Number of dispatched load instructions (Count)
system.cpu.iew.dispStoreInsts                 5744068                       # Number of dispatched store instructions (Count)
system.cpu.iew.dispNonSpecInsts                 33403                       # Number of dispatched non-speculative instructions (Count)
system.cpu.iew.iqFullEvents                    189687                       # Number of times the IQ has become full, causing a stall (Count)
system.cpu.iew.lsqFullEvents                 26111794                       # Number of times the LSQ has become full, causing a stall (Count)
system.cpu.iew.memOrderViolationEvents          21258                       # Number of memory order violations (Count)
system.cpu.iew.predictedTakenIncorrect          85691                       # Number of branches that were predicted taken incorrectly (Count)
system.cpu.iew.predictedNotTakenIncorrect       115706                       # Number of branches that were predicted not taken incorrectly (Count)
system.cpu.iew.branchMispredicts               201397                       # Number of branch mispredicts detected at execute (Count)
system.cpu.iew.instsToCommit                 51715461                       # Cumulative count of insts sent to commit (Count)
system.cpu.iew.writebackCount                51635195                       # Cumulative count of insts written-back (Count)
[...]
system.mem_ctrls.dram.bwRead::total         842227485                       # Total read bandwidth from this memory ((Byte/Second))
system.mem_ctrls.dram.bwInstRead::cpu.inst    138610050                       # Instruction read bandwidth from this memory ((Byte/Second))
system.mem_ctrls.dram.bwInstRead::total     138610050                       # Instruction read bandwidth from this memory ((Byte/Second))
system.mem_ctrls.dram.bwWrite::writebacks     37317540                       # Write bandwidth from this memory ((Byte/Second))
system.mem_ctrls.dram.bwWrite::total         37317540                       # Write bandwidth from this memory ((Byte/Second))
system.mem_ctrls.dram.bwTotal::writebacks     37317540                       # Total bandwidth to/from this memory ((Byte/Second))
system.mem_ctrls.dram.bwTotal::cpu.inst     138610050                       # Total bandwidth to/from this memory ((Byte/Second))
system.mem_ctrls.dram.bwTotal::cpu.data     703617436                       # Total bandwidth to/from this memory ((Byte/Second))
system.mem_ctrls.dram.bwTotal::total        879545026                       # Total bandwidth to/from this memory ((Byte/Second))
system.mem_ctrls.dram.readBursts               287474                       # Number of DRAM read bursts (Count)
system.mem_ctrls.dram.writeBursts                8039                       # Number of DRAM write bursts (Count)
system.mem_ctrls.dram.perBankRdBursts::0          859                       # Per bank write bursts (Count)
system.mem_ctrls.dram.perBankRdBursts::1         1033                       # Per bank write bursts (Count)
system.mem_ctrls.dram.perBankRdBursts::2         5516                       # Per bank write bursts (Count)
system.mem_ctrls.dram.perBankRdBursts::3          863                       # Per bank write bursts (Count)
system.mem_ctrls.dram.perBankRdBursts::4          767                       # Per bank write bursts (Count)
system.mem_ctrls.dram.perBankRdBursts::5          793                       # Per bank write bursts (Count)
system.mem_ctrls.dram.perBankRdBursts::6          732                       # Per bank write bursts (Count)
system.mem_ctrls.dram.perBankRdBursts::7         1997                       # Per bank write bursts (Count)
system.mem_ctrls.dram.perBankRdBursts::8         1999                       # Per bank write bursts (Count)
system.mem_ctrls.dram.perBankRdBursts::9         1974                       # Per bank write bursts (Count)
system.mem_ctrls.dram.perBankRdBursts::10         4751                       # Per bank write bursts (Count)
system.mem_ctrls.dram.perBankRdBursts::11        66220                       # Per bank write bursts (Count)
system.mem_ctrls.dram.perBankRdBursts::12        66076                       # Per bank write bursts (Count)
system.mem_ctrls.dram.perBankRdBursts::13        66083                       # Per bank write bursts (Count)
system.mem_ctrls.dram.perBankRdBursts::14        62799                       # Per bank write bursts (Count)
system.mem_ctrls.dram.perBankRdBursts::15         5012                       # Per bank write bursts (Count)
system.mem_ctrls.dram.perBankWrBursts::0          489                       # Per bank write bursts (Count)
system.mem_ctrls.dram.perBankWrBursts::1          579                       # Per bank write bursts (Count)
system.mem_ctrls.dram.perBankWrBursts::2          458                       # Per bank write bursts (Count)
system.mem_ctrls.dram.perBankWrBursts::3          466                       # Per bank write bursts (Count)
system.mem_ctrls.dram.perBankWrBursts::4          375                       # Per bank write bursts (Count)
system.mem_ctrls.dram.perBankWrBursts::5          420                       # Per bank write bursts (Count)
system.mem_ctrls.dram.perBankWrBursts::6          393                       # Per bank write bursts (Count)
system.mem_ctrls.dram.perBankWrBursts::7          553                       # Per bank write bursts (Count)
system.mem_ctrls.dram.perBankWrBursts::8          527                       # Per bank write bursts (Count)
system.mem_ctrls.dram.perBankWrBursts::9          519                       # Per bank write bursts (Count)
system.mem_ctrls.dram.perBankWrBursts::10          538                       # Per bank write bursts (Count)
system.mem_ctrls.dram.perBankWrBursts::11          535                       # Per bank write bursts (Count)
system.mem_ctrls.dram.perBankWrBursts::12          542                       # Per bank write bursts (Count)
system.mem_ctrls.dram.perBankWrBursts::13          557                       # Per bank write bursts (Count)
system.mem_ctrls.dram.perBankWrBursts::14          531                       # Per bank write bursts (Count)
system.mem_ctrls.dram.perBankWrBursts::15          557                       # Per bank write bursts (Count)
system.mem_ctrls.dram.totQLat              1046984000                       # Total ticks spent queuing (Tick)
system.mem_ctrls.dram.totBusLat            1437370000                       # Total ticks spent in databus transfers (Tick)
system.mem_ctrls.dram.totMemAccLat         6437121500                       # Total ticks spent from burst creation until serviced by the DRAM (Tick)
system.mem_ctrls.dram.avgQLat                 3642.01                       # Average queueing delay per DRAM burst ((Tick/Count))
system.mem_ctrls.dram.avgBusLat               5000.00                       # Average bus latency per DRAM burst ((Tick/Count))
system.mem_ctrls.dram.avgMemAccLat           22392.01                       # Average memory access latency per DRAM burst ((Tick/Count))
system.mem_ctrls.dram.readRowHits              261977                       # Number of row buffer hits during reads (Count)
system.mem_ctrls.dram.writeRowHits               7233                       # Number of row buffer hits during writes (Count)
system.mem_ctrls.dram.readRowHitRate            91.13                       # Row buffer hit rate for reads (Ratio)
system.mem_ctrls.dram.writeRowHitRate           89.97                       # Row buffer hit rate for writes (Ratio)
system.mem_ctrls.dram.bytesPerActivate::samples        26290                       # Bytes accessed per row activation (Byte)
system.mem_ctrls.dram.bytesPerActivate::mean   719.246558                       # Bytes accessed per row activation (Byte)
system.mem_ctrls.dram.bytesPerActivate::gmean   533.308281                       # Bytes accessed per row activation (Byte)
system.mem_ctrls.dram.bytesPerActivate::stdev   381.759216                       # Bytes accessed per row activation (Byte)
system.mem_ctrls.dram.bytesPerActivate::0-127         2246      8.54%      8.54% # Bytes accessed per row activation (Byte)
system.mem_ctrls.dram.bytesPerActivate::128-255         3331     12.67%     21.21% # Bytes accessed per row activation (Byte)
system.mem_ctrls.dram.bytesPerActivate::256-383         1862      7.08%     28.30% # Bytes accessed per row activation (Byte)
system.mem_ctrls.dram.bytesPerActivate::384-511          576      2.19%     30.49% # Bytes accessed per row activation (Byte)
system.mem_ctrls.dram.bytesPerActivate::512-639          734      2.79%     33.28% # Bytes accessed per row activation (Byte)
system.mem_ctrls.dram.bytesPerActivate::640-767         1581      6.01%     39.29% # Bytes accessed per row activation (Byte)
system.mem_ctrls.dram.bytesPerActivate::768-895          664      2.53%     41.82% # Bytes accessed per row activation (Byte)
system.mem_ctrls.dram.bytesPerActivate::896-1023         1559      5.93%     47.75% # Bytes accessed per row activation (Byte)
system.mem_ctrls.dram.bytesPerActivate::1024-1151        13737     52.25%    100.00% # Bytes accessed per row activation (Byte)
system.mem_ctrls.dram.bytesPerActivate::total        26290                       # Bytes accessed per row activation (Byte)
system.mem_ctrls.dram.bytesRead              18398336                       # Total bytes read (Byte)
system.mem_ctrls.dram.bytesWritten             514496                       # Total bytes written (Byte)
system.mem_ctrls.dram.avgRdBW              684.958665                       # Average DRAM read bandwidth in MiBytes/s ((Byte/Second))
system.mem_ctrls.dram.avgWrBW               19.154368                       # Average DRAM write bandwidth in MiBytes/s ((Byte/Second))
system.mem_ctrls.dram.peakBW                 12800.00                       # Theoretical peak bandwidth in MiByte/s ((Byte/Second))
system.mem_ctrls.dram.busUtil                    5.50                       # Data bus utilization in percentage (Ratio)
system.mem_ctrls.dram.busUtilRead                5.35                       # Data bus utilization in percentage for reads (Ratio)
system.mem_ctrls.dram.busUtilWrite               0.15                       # Data bus utilization in percentage for writes (Ratio)
system.mem_ctrls.dram.pageHitRate               91.10                       # Row buffer hit rate, read and write combined (Ratio)
system.mem_ctrls.dram.power_state.pwrStateResidencyTicks::UNDEFINED  26860505500                       # Cumulative time (in ticks) in various power states (Tick)
system.mem_ctrls.dram.rank0.actEnergy        27517560                       # Energy for activate commands per rank (pJ) (Joule)
system.mem_ctrls.dram.rank0.preEnergy        14599365                       # Energy for precharge commands per rank (pJ) (Joule)
system.mem_ctrls.dram.rank0.readEnergy       89678400                       # Energy for read commands per rank (pJ) (Joule)
system.mem_ctrls.dram.rank0.writeEnergy      19481040                       # Energy for write commands per rank (pJ) (Joule)
system.mem_ctrls.dram.rank0.refreshEnergy 2119893360.000000                       # Energy for refresh commands per rank (pJ) (Joule)
system.mem_ctrls.dram.rank0.actBackEnergy   6281346990                       # Energy for active background per rank (pJ) (Joule)
system.mem_ctrls.dram.rank0.preBackEnergy   5024879040                       # Energy for precharge background per rank (pJ) (Joule)
system.mem_ctrls.dram.rank0.actPowerDownEnergy            0                       # Energy for active power-down per rank (pJ) (Joule)
system.mem_ctrls.dram.rank0.prePowerDownEnergy            0                       # Energy for precharge power-down per rank (pJ) (Joule)
system.mem_ctrls.dram.rank0.selfRefreshEnergy            0                       # Energy for self refresh per rank (pJ) (Joule)
system.mem_ctrls.dram.rank0.totalEnergy   13577395755                       # Total energy per rank (pJ) (Joule)
system.mem_ctrls.dram.rank0.averagePower   505.478043                       # Core power per rank (mW) (Watt)
system.mem_ctrls.dram.rank0.totalIdleTime            0                       # Total Idle time Per DRAM Rank (Tick)
system.mem_ctrls.dram.rank0.pwrStateTime::IDLE  13003109250                       # Time in different power states (Tick)
system.mem_ctrls.dram.rank0.pwrStateTime::REF    896740000                       # Time in different power states (Tick)
system.mem_ctrls.dram.rank0.pwrStateTime::SREF            0                       # Time in different power states (Tick)
system.mem_ctrls.dram.rank0.pwrStateTime::PRE_PDN            0                       # Time in different power states (Tick)
system.mem_ctrls.dram.rank0.pwrStateTime::ACT  12960656250                       # Time in different power states (Tick)
system.mem_ctrls.dram.rank0.pwrStateTime::ACT_PDN            0                       # Time in different power states (Tick)
system.mem_ctrls.dram.rank1.actEnergy       160271580                       # Energy for activate commands per rank (pJ) (Joule)
system.mem_ctrls.dram.rank1.preEnergy        85163595                       # Energy for precharge commands per rank (pJ) (Joule)
system.mem_ctrls.dram.rank1.readEnergy     1962885960                       # Energy for read commands per rank (pJ) (Joule)
system.mem_ctrls.dram.rank1.writeEnergy      22456440                       # Energy for write commands per rank (pJ) (Joule)
system.mem_ctrls.dram.rank1.refreshEnergy 2119893360.000000                       # Energy for refresh commands per rank (pJ) (Joule)
system.mem_ctrls.dram.rank1.actBackEnergy  11601951000                       # Energy for active background per rank (pJ) (Joule)
system.mem_ctrls.dram.rank1.preBackEnergy    544370400                       # Energy for precharge background per rank (pJ) (Joule)
system.mem_ctrls.dram.rank1.actPowerDownEnergy            0                       # Energy for active power-down per rank (pJ) (Joule)
system.mem_ctrls.dram.rank1.prePowerDownEnergy            0                       # Energy for precharge power-down per rank (pJ) (Joule)
system.mem_ctrls.dram.rank1.selfRefreshEnergy            0                       # Energy for self refresh per rank (pJ) (Joule)
system.mem_ctrls.dram.rank1.totalEnergy   16496992335                       # Total energy per rank (pJ) (Joule)
system.mem_ctrls.dram.rank1.averagePower   614.172817                       # Core power per rank (mW) (Watt)
system.mem_ctrls.dram.rank1.totalIdleTime            0                       # Total Idle time Per DRAM Rank (Tick)
system.mem_ctrls.dram.rank1.pwrStateTime::IDLE   1311813500                       # Time in different power states (Tick)
system.mem_ctrls.dram.rank1.pwrStateTime::REF    896740000                       # Time in different power states (Tick)
system.mem_ctrls.dram.rank1.pwrStateTime::SREF            0                       # Time in different power states (Tick)
system.mem_ctrls.dram.rank1.pwrStateTime::PRE_PDN            0                       # Time in different power states (Tick)
system.mem_ctrls.dram.rank1.pwrStateTime::ACT  24651952000                       # Time in different power states (Tick)
system.mem_ctrls.dram.rank1.pwrStateTime::ACT_PDN            0                       # Time in different power states (Tick)
system.mem_ctrls.power_state.pwrStateResidencyTicks::UNDEFINED  26860505500                       # Cumulative time (in ticks) in various power states (Tick)
system.membus.transDist::ReadResp              345953                       # Transaction distribution (Count)
system.membus.transDist::WritebackDirty         15662                       # Transaction distribution (Count)
system.membus.transDist::WritebackClean         57729                       # Transaction distribution (Count)
system.membus.transDist::CleanEvict            279654                       # Transaction distribution (Count)
system.membus.transDist::ReadExReq               7525                       # Transaction distribution (Count)
system.membus.transDist::ReadExResp              7525                       # Transaction distribution (Count)
system.membus.transDist::ReadCleanReq           58176                       # Transaction distribution (Count)
system.membus.transDist::ReadSharedReq         287780                       # Transaction distribution (Count)
system.membus.transDist::InvalidateReq            268                       # Transaction distribution (Count)
system.membus.pktCount_system.cpu.icache.mem_side_port::system.mem_ctrls.port       174079                       # Packet count per connected requestor and responder (Count)
system.membus.pktCount_system.cpu.dcache.mem_side_port::system.mem_ctrls.port       886193                       # Packet count per connected requestor and responder (Count)
system.membus.pktCount::total                 1060272                       # Packet count per connected requestor and responder (Count)
system.membus.pktSize_system.cpu.icache.mem_side_port::system.mem_ctrls.port      7417792                       # Cumulative packet size per connected requestor and responder (Byte)
system.membus.pktSize_system.cpu.dcache.mem_side_port::system.mem_ctrls.port     19901824                       # Cumulative packet size per connected requestor and responder (Byte)
system.membus.pktSize::total                 27319616                       # Cumulative packet size per connected requestor and responder (Byte)
system.membus.snoops                                0                       # Total snoops (Count)
system.membus.snoopTraffic                          0                       # Total snoop traffic (Byte)
system.membus.snoopFanout::samples             353749                       # Request fanout histogram (Count)
system.membus.snoopFanout::mean              0.000006                       # Request fanout histogram (Count)
system.membus.snoopFanout::stdev             0.002378                       # Request fanout histogram (Count)
system.membus.snoopFanout::underflows               0      0.00%      0.00% # Request fanout histogram (Count)
system.membus.snoopFanout::0                   353747    100.00%    100.00% # Request fanout histogram (Count)
system.membus.snoopFanout::1                        2      0.00%    100.00% # Request fanout histogram (Count)
system.membus.snoopFanout::2                        0      0.00%    100.00% # Request fanout histogram (Count)
system.membus.snoopFanout::3                        0      0.00%    100.00% # Request fanout histogram (Count)
system.membus.snoopFanout::4                        0      0.00%    100.00% # Request fanout histogram (Count)
system.membus.snoopFanout::overflows                0      0.00%    100.00% # Request fanout histogram (Count)
system.membus.snoopFanout::min_value                0                       # Request fanout histogram (Count)
system.membus.snoopFanout::max_value                1                       # Request fanout histogram (Count)
system.membus.snoopFanout::total               353749                       # Request fanout histogram (Count)
system.membus.power_state.pwrStateResidencyTicks::UNDEFINED  26860505500                       # Cumulative time (in ticks) in various power states (Tick)
system.membus.reqLayer0.occupancy          1144218000                       # Layer occupancy (ticks) (Tick)
system.membus.reqLayer0.utilization               0.0                       # Layer utilization (Ratio)
system.membus.respLayer1.occupancy          291123000                       # Layer occupancy (ticks) (Tick)
system.membus.respLayer1.utilization              0.0                       # Layer utilization (Ratio)
system.membus.respLayer2.occupancy         1553710500                       # Layer occupancy (ticks) (Tick)
system.membus.respLayer2.utilization              0.1                       # Layer utilization (Ratio)
system.membus.snoop_filter.totRequests         706794                       # Total number of requests made to the snoop filter. (Count)
system.membus.snoop_filter.hitSingleRequests       353047                       # Number of requests hitting in the snoop filter with a single holder of the requested data. (Count)
system.membus.snoop_filter.hitMultiRequests            0                       # Number of requests hitting in the snoop filter with multiple (>1) holders of the requested data. (Count)
system.membus.snoop_filter.totSnoops                0                       # Total number of snoops made to the snoop filter. (Count)
system.membus.snoop_filter.hitSingleSnoops            0                       # Number of snoops hitting in the snoop filter with a single holder of the requested data. (Count)
system.membus.snoop_filter.hitMultiSnoops            0                       # Number of snoops hitting in the snoop filter with multiple (>1) holders of the requested data. (Count)
system.voltage_domain.voltage                       1                       # Voltage in Volts (Volt)
system.workload.inst.arm                            0                       # number of arm instructions executed (Count)
system.workload.inst.quiesce                        0                       # number of quiesce instructions executed (Count)

---------- End Simulation Statistics   ----------
