
---------- Begin Simulation Statistics ----------
simSeconds                                   0.060975                       # Number of seconds simulated (Second)
simTicks                                  60974802000                       # Number of ticks simulated (Tick)
finalTick                                 60974802000                       # Number of ticks from beginning of simulation (restored from checkpoints and never reset) (Tick)
simFreq                                  1000000000000                       # The number of ticks per simulated second ((Tick/Second))
hostSeconds                                     86.73                       # Real time elapsed on the host (Second)
hostTickRate                                703051657                       # The number of ticks simulated per host second (ticks/s) ((Tick/Second))
hostMemory                                     639252                       # Number of bytes of host memory used (Byte)
simInsts                                     48986915                       # Number of instructions simulated (Count)
simOps                                       48986930                       # Number of ops (including micro ops) simulated (Count)
hostInstRate                                   564828                       # Simulator instruction rate (inst/s) ((Count/Second))
hostOpRate                                     564829                       # Simulator op (including micro ops) rate (op/s) ((Count/Second))
system.clk_domain.clock                          1000                       # Clock period in ticks (Tick)
system.cpu.numCycles                        121949604                       # Number of cpu cycles simulated (Cycle)
system.cpu.numWorkItemsStarted                      0                       # Number of work items this cpu started (Count)
system.cpu.numWorkItemsCompleted                    0                       # Number of work items this cpu completed (Count)
system.cpu.numInsts                          48986915                       # Number of instructions committed (Count)
system.cpu.numOps                            48986930                       # Number of ops (including micro ops) committed (Count)
system.cpu.numDiscardedOps                     450154                       # Number of ops (including micro ops) which were discarded before commit (Count)
system.cpu.numFetchSuspends                         0                       # Number of times Execute suspended instruction fetching (Count)
system.cpu.cpi                               2.489432                       # CPI: cycles per instruction ((Cycle/Count))
system.cpu.ipc                               0.401698                       # IPC: instructions per cycle ((Count/Cycle))
system.cpu.committedInstType_0::No_OpClass        28722      0.06%      0.06% # Class of committed instruction (Count)
system.cpu.committedInstType_0::IntAlu       31319113     63.93%     63.99% # Class of committed instruction (Count)
system.cpu.committedInstType_0::IntMult        479222      0.98%     64.97% # Class of committed instruction (Count)
system.cpu.committedInstType_0::IntDiv         315815      0.64%     65.62% # Class of committed instruction (Count)
system.cpu.committedInstType_0::FloatAdd       278528      0.57%     66.18% # Class of committed instruction (Count)
system.cpu.committedInstType_0::FloatCmp        16384      0.03%     66.22% # Class of committed instruction (Count)
system.cpu.committedInstType_0::FloatCvt        28672      0.06%     66.28% # Class of committed instruction (Count)
system.cpu.committedInstType_0::FloatMult       262144      0.54%     66.81% # Class of committed instruction (Count)
system.cpu.committedInstType_0::FloatMultAcc            0      0.00%     66.81% # Class of committed instruction (Count)
system.cpu.committedInstType_0::FloatDiv            0      0.00%     66.81% # Class of committed instruction (Count)
system.cpu.committedInstType_0::FloatMisc         4096      0.01%     66.82% # Class of committed instruction (Count)
system.cpu.committedInstType_0::FloatSqrt            0      0.00%     66.82% # Class of committed instruction (Count)
system.cpu.committedInstType_0::SimdAdd             0      0.00%     66.82% # Class of committed instruction (Count)
system.cpu.committedInstType_0::SimdAddAcc            0      0.00%     66.82% # Class of committed instruction (Count)
system.cpu.committedInstType_0::SimdAlu             0      0.00%     66.82% # Class of committed instruction (Count)
system.cpu.committedInstType_0::SimdCmp             0      0.00%     66.82% # Class of committed instruction (Count)
system.cpu.committedInstType_0::SimdCvt             0      0.00%     66.82% # Class of committed instruction (Count)
system.cpu.committedInstType_0::SimdMisc            0      0.00%     66.82% # Class of committed instruction (Count)
system.cpu.committedInstType_0::SimdMult            0      0.00%     66.82% # Class of committed instruction (Count)
system.cpu.committedInstType_0::SimdMultAcc            0      0.00%     66.82% # Class of committed instruction (Count)
system.cpu.committedInstType_0::SimdShift            0      0.00%     66.82% # Class of committed instruction (Count)
system.cpu.committedInstType_0::SimdShiftAcc            0      0.00%     66.82% # Class of committed instruction (Count)
system.cpu.committedInstType_0::SimdDiv             0      0.00%     66.82% # Class of committed instruction (Count)
system.cpu.committedInstType_0::SimdSqrt            0      0.00%     66.82% # Class of committed instruction (Count)
system.cpu.committedInstType_0::SimdFloatAdd            0      0.00%     66.82% # Class of committed instruction (Count)
system.cpu.committedInstType_0::SimdFloatAlu            0      0.00%     66.82% # Class of committed instruction (Count)
system.cpu.committedInstType_0::SimdFloatCmp            0      0.00%     66.82% # Class of committed instruction (Count)
system.cpu.committedInstType_0::SimdFloatCvt            0      0.00%     66.82% # Class of committed instruction (Count)
system.cpu.committedInstType_0::SimdFloatDiv            0      0.00%     66.82% # Class of committed instruction (Count)
system.cpu.committedInstType_0::SimdFloatMisc            0      0.00%     66.82% # Class of committed instruction (Count)
system.cpu.committedInstType_0::SimdFloatMult            0      0.00%     66.82% # Class of committed instruction (Count)
system.cpu.committedInstType_0::SimdFloatMultAcc            0      0.00%     66.82% # Class of committed instruction (Count)
system.cpu.committedInstType_0::SimdFloatSqrt            0      0.00%     66.82% # Class of committed instruction (Count)
system.cpu.committedInstType_0::SimdReduceAdd            0      0.00%     66.82% # Class of committed instruction (Count)
system.cpu.committedInstType_0::SimdReduceAlu            0      0.00%     66.82% # Class of committed instruction (Count)
system.cpu.committedInstType_0::SimdReduceCmp            0      0.00%     66.82% # Class of committed instruction (Count)
system.cpu.committedInstType_0::SimdFloatReduceAdd            0      0.00%     66.82% # Class of committed instruction (Count)
system.cpu.committedInstType_0::SimdFloatReduceCmp            0      0.00%     66.82% # Class of committed instruction (Count)
system.cpu.committedInstType_0::SimdAes             0      0.00%     66.82% # Class of committed instruction (Count)
system.cpu.committedInstType_0::SimdAesMix            0      0.00%     66.82% # Class of committed instruction (Count)
system.cpu.committedInstType_0::SimdSha1Hash            0      0.00%     66.82% # Class of committed instruction (Count)
system.cpu.committedInstType_0::SimdSha1Hash2            0      0.00%     66.82% # Class of committed instruction (Count)
system.cpu.committedInstType_0::SimdSha256Hash            0      0.00%     66.82% # Class of committed instruction (Count)
system.cpu.committedInstType_0::SimdSha256Hash2            0      0.00%     66.82% # Class of committed instruction (Count)
system.cpu.committedInstType_0::SimdShaSigma2            0      0.00%     66.82% # Class of committed instruction (Count)
system.cpu.committedInstType_0::SimdShaSigma3            0      0.00%     66.82% # Class of committed instruction (Count)
system.cpu.committedInstType_0::SimdPredAlu            0      0.00%     66.82% # Class of committed instruction (Count)
system.cpu.committedInstType_0::MemRead       9818821     20.04%     86.86% # Class of committed instruction (Count)
system.cpu.committedInstType_0::MemWrite      4735553      9.67%     96.53% # Class of committed instruction (Count)
system.cpu.committedInstType_0::FloatMemRead      1126400      2.30%     98.83% # Class of committed instruction (Count)
system.cpu.committedInstType_0::FloatMemWrite       573460      1.17%    100.00% # Class of committed instruction (Count)
system.cpu.committedInstType_0::IprAccess            0      0.00%    100.00% # Class of committed instruction (Count)
system.cpu.committedInstType_0::InstPrefetch            0      0.00%    100.00% # Class of committed instruction (Count)
system.cpu.committedInstType_0::total        48986930                       # Class of committed instruction (Count)
system.cpu.branchPred.lookups                 8781203                       # Number of BP lookups (Count)
system.cpu.branchPred.condPredicted           6663444                       # Number of conditional branches predicted (Count)
system.cpu.branchPred.condIncorrect            179348                       # Number of conditional branches incorrect (Count)
system.cpu.branchPred.BTBLookups              5003599                       # Number of BTB lookups (Count)
system.cpu.branchPred.BTBHits                 4982245                       # Number of BTB hits (Count)
system.cpu.branchPred.BTBHitRatio            0.995732                       # BTB Hit Ratio (Ratio)
system.cpu.branchPred.RASUsed                       0                       # Number of times the RAS was used to get a target. (Count)
system.cpu.branchPred.RASIncorrect                  0                       # Number of incorrect RAS predictions. (Count)
system.cpu.branchPred.indirectLookups          570279                       # Number of indirect predictor lookups. (Count)
system.cpu.branchPred.indirectHits             565591                       # Number of indirect target hits. (Count)
system.cpu.branchPred.indirectMisses             4688                       # Number of indirect misses. (Count)
system.cpu.branchPred.indirectMispredicted        19998                       # Number of mispredicted indirect branches. (Count)
system.cpu.dcache.demandHits::cpu.data       15353450                       # number of demand (read+write) hits (Count)
system.cpu.dcache.demandHits::total          15353450                       # number of demand (read+write) hits (Count)
system.cpu.dcache.overallHits::cpu.data      15353450                       # number of overall hits (Count)
system.cpu.dcache.overallHits::total         15353450                       # number of overall hits (Count)
system.cpu.dcache.demandMisses::cpu.data       608551                       # number of demand (read+write) misses (Count)
system.cpu.dcache.demandMisses::total          608551                       # number of demand (read+write) misses (Count)
system.cpu.dcache.overallMisses::cpu.data       608551                       # number of overall misses (Count)
system.cpu.dcache.overallMisses::total         608551                       # number of overall misses (Count)
system.cpu.dcache.demandMissLatency::cpu.data  32075669000                       # number of demand (read+write) miss ticks (Tick)
system.cpu.dcache.demandMissLatency::total  32075669000                       # number of demand (read+write) miss ticks (Tick)
system.cpu.dcache.overallMissLatency::cpu.data  32075669000                       # number of overall miss ticks (Tick)
system.cpu.dcache.overallMissLatency::total  32075669000                       # number of overall miss ticks (Tick)
system.cpu.dcache.demandAccesses::cpu.data     15962001                       # number of demand (read+write) accesses (Count)
system.cpu.dcache.demandAccesses::total      15962001                       # number of demand (read+write) accesses (Count)
system.cpu.dcache.overallAccesses::cpu.data     15962001                       # number of overall (read+write) accesses (Count)
system.cpu.dcache.overallAccesses::total     15962001                       # number of overall (read+write) accesses (Count)
system.cpu.dcache.demandMissRate::cpu.data     0.038125                       # miss rate for demand accesses (Ratio)
system.cpu.dcache.demandMissRate::total      0.038125                       # miss rate for demand accesses (Ratio)
system.cpu.dcache.overallMissRate::cpu.data     0.038125                       # miss rate for overall accesses (Ratio)
system.cpu.dcache.overallMissRate::total     0.038125                       # miss rate for overall accesses (Ratio)
system.cpu.dcache.demandAvgMissLatency::cpu.data 52708.267672                       # average overall miss latency ((Cycle/Count))
system.cpu.dcache.demandAvgMissLatency::total 52708.267672                       # average overall miss latency ((Cycle/Count))
system.cpu.dcache.overallAvgMissLatency::cpu.data 52708.267672                       # average overall miss latency ((Cycle/Count))
system.cpu.dcache.overallAvgMissLatency::total 52708.267672                       # average overall miss latency ((Cycle/Count))
system.cpu.dcache.blockedCycles::no_mshrs            0                       # number of cycles access was blocked (Cycle)
system.cpu.dcache.blockedCycles::no_targets            0                       # number of cycles access was blocked (Cycle)
system.cpu.dcache.blockedCauses::no_mshrs            0                       # number of times access was blocked (Count)
system.cpu.dcache.blockedCauses::no_targets            0                       # number of times access was blocked (Count)
system.cpu.dcache.avgBlocked::no_mshrs            nan                       # average number of cycles each access was blocked ((Cycle/Count))
system.cpu.dcache.avgBlocked::no_targets          nan                       # average number of cycles each access was blocked ((Cycle/Count))
system.cpu.dcache.writebacks::writebacks       113282                       # number of writebacks (Count)
system.cpu.dcache.writebacks::total            113282                       # number of writebacks (Count)
system.cpu.dcache.demandMshrHits::cpu.data        64018                       # number of demand (read+write) MSHR hits (Count)
system.cpu.dcache.demandMshrHits::total         64018                       # number of demand (read+write) MSHR hits (Count)
system.cpu.dcache.overallMshrHits::cpu.data        64018                       # number of overall MSHR hits (Count)
system.cpu.dcache.overallMshrHits::total        64018                       # number of overall MSHR hits (Count)
system.cpu.dcache.demandMshrMisses::cpu.data       544533                       # number of demand (read+write) MSHR misses (Count)
system.cpu.dcache.demandMshrMisses::total       544533                       # number of demand (read+write) MSHR misses (Count)
system.cpu.dcache.overallMshrMisses::cpu.data       544533                       # number of overall MSHR misses (Count)
system.cpu.dcache.overallMshrMisses::total       544533                       # number of overall MSHR misses (Count)
system.cpu.dcache.demandMshrMissLatency::cpu.data  29142176000                       # number of demand (read+write) MSHR miss ticks (Tick)
system.cpu.dcache.demandMshrMissLatency::total  29142176000                       # number of demand (read+write) MSHR miss ticks (Tick)
system.cpu.dcache.overallMshrMissLatency::cpu.data  29142176000                       # number of overall MSHR miss ticks (Tick)
system.cpu.dcache.overallMshrMissLatency::total  29142176000                       # number of overall MSHR miss ticks (Tick)
system.cpu.dcache.demandMshrMissRate::cpu.data     0.034114                       # mshr miss ratio for demand accesses (Ratio)
system.cpu.dcache.demandMshrMissRate::total     0.034114                       # mshr miss ratio for demand accesses (Ratio)
system.cpu.dcache.overallMshrMissRate::cpu.data     0.034114                       # mshr miss ratio for overall accesses (Ratio)
system.cpu.dcache.overallMshrMissRate::total     0.034114                       # mshr miss ratio for overall accesses (Ratio)
system.cpu.dcache.demandAvgMshrMissLatency::cpu.data 53517.740890                       # average overall mshr miss latency ((Cycle/Count))
system.cpu.dcache.demandAvgMshrMissLatency::total 53517.740890                       # average overall mshr miss latency ((Cycle/Count))
system.cpu.dcache.overallAvgMshrMissLatency::cpu.data 53517.740890                       # average overall mshr miss latency ((Cycle/Count))
system.cpu.dcache.overallAvgMshrMissLatency::total 53517.740890                       # average overall mshr miss latency ((Cycle/Count))
system.cpu.dcache.replacements                 544472                       # number of replacements (Count)
system.cpu.dcache.LoadLockedReq.hits::cpu.data            7                       # number of LoadLockedReq hits (Count)
system.cpu.dcache.LoadLockedReq.hits::total            7                       # number of LoadLockedReq hits (Count)
system.cpu.dcache.LoadLockedReq.misses::cpu.data            2                       # number of LoadLockedReq misses (Count)
system.cpu.dcache.LoadLockedReq.misses::total            2                       # number of LoadLockedReq misses (Count)
system.cpu.dcache.LoadLockedReq.missLatency::cpu.data       169000                       # number of LoadLockedReq miss ticks (Tick)
system.cpu.dcache.LoadLockedReq.missLatency::total       169000                       # number of LoadLockedReq miss ticks (Tick)
system.cpu.dcache.LoadLockedReq.accesses::cpu.data            9                       # number of LoadLockedReq accesses(hits+misses) (Count)
system.cpu.dcache.LoadLockedReq.accesses::total            9                       # number of LoadLockedReq accesses(hits+misses) (Count)
system.cpu.dcache.LoadLockedReq.missRate::cpu.data     0.222222                       # miss rate for LoadLockedReq accesses (Ratio)
system.cpu.dcache.LoadLockedReq.missRate::total     0.222222                       # miss rate for LoadLockedReq accesses (Ratio)
system.cpu.dcache.LoadLockedReq.avgMissLatency::cpu.data        84500                       # average LoadLockedReq miss latency ((Tick/Count))
system.cpu.dcache.LoadLockedReq.avgMissLatency::total        84500                       # average LoadLockedReq miss latency ((Tick/Count))
system.cpu.dcache.LoadLockedReq.mshrMisses::cpu.data            2                       # number of LoadLockedReq MSHR misses (Count)
system.cpu.dcache.LoadLockedReq.mshrMisses::total            2                       # number of LoadLockedReq MSHR misses (Count)
system.cpu.dcache.LoadLockedReq.mshrMissLatency::cpu.data       167000                       # number of LoadLockedReq MSHR miss ticks (Tick)
system.cpu.dcache.LoadLockedReq.mshrMissLatency::total       167000                       # number of LoadLockedReq MSHR miss ticks (Tick)
system.cpu.dcache.LoadLockedReq.mshrMissRate::cpu.data     0.222222                       # mshr miss rate for LoadLockedReq accesses (Ratio)
system.cpu.dcache.LoadLockedReq.mshrMissRate::total     0.222222                       # mshr miss rate for LoadLockedReq accesses (Ratio)
system.cpu.dcache.LoadLockedReq.avgMshrMissLatency::cpu.data        83500                       # average LoadLockedReq mshr miss latency ((Tick/Count))
system.cpu.dcache.LoadLockedReq.avgMshrMissLatency::total        83500                       # average LoadLockedReq mshr miss latency ((Tick/Count))
system.cpu.dcache.ReadReq.hits::cpu.data     10168091                       # number of ReadReq hits (Count)
system.cpu.dcache.ReadReq.hits::total        10168091                       # number of ReadReq hits (Count)
system.cpu.dcache.ReadReq.misses::cpu.data       484942                       # number of ReadReq misses (Count)
system.cpu.dcache.ReadReq.misses::total        484942                       # number of ReadReq misses (Count)
system.cpu.dcache.ReadReq.missLatency::cpu.data  27909054500                       # number of ReadReq miss ticks (Tick)
system.cpu.dcache.ReadReq.missLatency::total  27909054500                       # number of ReadReq miss ticks (Tick)
system.cpu.dcache.ReadReq.accesses::cpu.data     10653033                       # number of ReadReq accesses(hits+misses) (Count)
system.cpu.dcache.ReadReq.accesses::total     10653033                       # number of ReadReq accesses(hits+misses) (Count)
system.cpu.dcache.ReadReq.missRate::cpu.data     0.045521                       # miss rate for ReadReq accesses (Ratio)
system.cpu.dcache.ReadReq.missRate::total     0.045521                       # miss rate for ReadReq accesses (Ratio)
system.cpu.dcache.ReadReq.avgMissLatency::cpu.data 57551.324694                       # average ReadReq miss latency ((Tick/Count))
system.cpu.dcache.ReadReq.avgMissLatency::total 57551.324694                       # average ReadReq miss latency ((Tick/Count))
system.cpu.dcache.ReadReq.mshrHits::cpu.data        14839                       # number of ReadReq MSHR hits (Count)
system.cpu.dcache.ReadReq.mshrHits::total        14839                       # number of ReadReq MSHR hits (Count)
system.cpu.dcache.ReadReq.mshrMisses::cpu.data       470103                       # number of ReadReq MSHR misses (Count)
system.cpu.dcache.ReadReq.mshrMisses::total       470103                       # number of ReadReq MSHR misses (Count)
system.cpu.dcache.ReadReq.mshrMissLatency::cpu.data  26727641500                       # number of ReadReq MSHR miss ticks (Tick)
system.cpu.dcache.ReadReq.mshrMissLatency::total  26727641500                       # number of ReadReq MSHR miss ticks (Tick)
system.cpu.dcache.ReadReq.mshrMissRate::cpu.data     0.044129                       # mshr miss rate for ReadReq accesses (Ratio)
system.cpu.dcache.ReadReq.mshrMissRate::total     0.044129                       # mshr miss rate for ReadReq accesses (Ratio)
system.cpu.dcache.ReadReq.avgMshrMissLatency::cpu.data 56854.862658                       # average ReadReq mshr miss latency ((Tick/Count))
system.cpu.dcache.ReadReq.avgMshrMissLatency::total 56854.862658                       # average ReadReq mshr miss latency ((Tick/Count))
system.cpu.dcache.StoreCondReq.hits::cpu.data            9                       # number of StoreCondReq hits (Count)
system.cpu.dcache.StoreCondReq.hits::total            9                       # number of StoreCondReq hits (Count)
system.cpu.dcache.StoreCondReq.accesses::cpu.data            9                       # number of StoreCondReq accesses(hits+misses) (Count)
system.cpu.dcache.StoreCondReq.accesses::total            9                       # number of StoreCondReq accesses(hits+misses) (Count)
system.cpu.dcache.SwapReq.hits::cpu.data           16                       # number of SwapReq hits (Count)
system.cpu.dcache.SwapReq.hits::total              16                       # number of SwapReq hits (Count)
system.cpu.dcache.SwapReq.misses::cpu.data            1                       # number of SwapReq misses (Count)
system.cpu.dcache.SwapReq.misses::total             1                       # number of SwapReq misses (Count)
system.cpu.dcache.SwapReq.missLatency::cpu.data        51500                       # number of SwapReq miss ticks (Tick)
system.cpu.dcache.SwapReq.missLatency::total        51500                       # number of SwapReq miss ticks (Tick)
system.cpu.dcache.SwapReq.accesses::cpu.data           17                       # number of SwapReq accesses(hits+misses) (Count)
system.cpu.dcache.SwapReq.accesses::total           17                       # number of SwapReq accesses(hits+misses) (Count)
system.cpu.dcache.SwapReq.missRate::cpu.data     0.058824                       # miss rate for SwapReq accesses (Ratio)
system.cpu.dcache.SwapReq.missRate::total     0.058824                       # miss rate for SwapReq accesses (Ratio)
system.cpu.dcache.SwapReq.avgMissLatency::cpu.data        51500                       # average SwapReq miss latency ((Tick/Count))
system.cpu.dcache.SwapReq.avgMissLatency::total        51500                       # average SwapReq miss latency ((Tick/Count))
system.cpu.dcache.SwapReq.mshrMisses::cpu.data            1                       # number of SwapReq MSHR misses (Count)
system.cpu.dcache.SwapReq.mshrMisses::total            1                       # number of SwapReq MSHR misses (Count)
system.cpu.dcache.SwapReq.mshrMissLatency::cpu.data        50500                       # number of SwapReq MSHR miss ticks (Tick)
system.cpu.dcache.SwapReq.mshrMissLatency::total        50500                       # number of SwapReq MSHR miss ticks (Tick)
system.cpu.dcache.SwapReq.mshrMissRate::cpu.data     0.058824                       # mshr miss rate for SwapReq accesses (Ratio)
system.cpu.dcache.SwapReq.mshrMissRate::total     0.058824                       # mshr miss rate for SwapReq accesses (Ratio)
system.cpu.dcache.SwapReq.avgMshrMissLatency::cpu.data        50500                       # average SwapReq mshr miss latency ((Tick/Count))
system.cpu.dcache.SwapReq.avgMshrMissLatency::total        50500                       # average SwapReq mshr miss latency ((Tick/Count))
system.cpu.dcache.WriteReq.hits::cpu.data      5185359                       # number of WriteReq hits (Count)
system.cpu.dcache.WriteReq.hits::total        5185359                       # number of WriteReq hits (Count)
system.cpu.dcache.WriteReq.misses::cpu.data       123609                       # number of WriteReq misses (Count)
system.cpu.dcache.WriteReq.misses::total       123609                       # number of WriteReq misses (Count)
system.cpu.dcache.WriteReq.missLatency::cpu.data   4166614500                       # number of WriteReq miss ticks (Tick)
system.cpu.dcache.WriteReq.missLatency::total   4166614500                       # number of WriteReq miss ticks (Tick)
system.cpu.dcache.WriteReq.accesses::cpu.data      5308968                       # number of WriteReq accesses(hits+misses) (Count)
system.cpu.dcache.WriteReq.accesses::total      5308968                       # number of WriteReq accesses(hits+misses) (Count)
system.cpu.dcache.WriteReq.missRate::cpu.data     0.023283                       # miss rate for WriteReq accesses (Ratio)
system.cpu.dcache.WriteReq.missRate::total     0.023283                       # miss rate for WriteReq accesses (Ratio)
system.cpu.dcache.WriteReq.avgMissLatency::cpu.data 33708.018834                       # average WriteReq miss latency ((Tick/Count))
system.cpu.dcache.WriteReq.avgMissLatency::total 33708.018834                       # average WriteReq miss latency ((Tick/Count))
system.cpu.dcache.WriteReq.mshrHits::cpu.data        49179                       # number of WriteReq MSHR hits (Count)
system.cpu.dcache.WriteReq.mshrHits::total        49179                       # number of WriteReq MSHR hits (Count)
system.cpu.dcache.WriteReq.mshrMisses::cpu.data        74430                       # number of WriteReq MSHR misses (Count)
system.cpu.dcache.WriteReq.mshrMisses::total        74430                       # number of WriteReq MSHR misses (Count)
system.cpu.dcache.WriteReq.mshrMissLatency::cpu.data   2414534500                       # number of WriteReq MSHR miss ticks (Tick)
system.cpu.dcache.WriteReq.mshrMissLatency::total   2414534500                       # number of WriteReq MSHR miss ticks (Tick)
system.cpu.dcache.WriteReq.mshrMissRate::cpu.data     0.014020                       # mshr miss rate for WriteReq accesses (Ratio)
system.cpu.dcache.WriteReq.mshrMissRate::total     0.014020                       # mshr miss rate for WriteReq accesses (Ratio)
system.cpu.dcache.WriteReq.avgMshrMissLatency::cpu.data 32440.339917                       # average WriteReq mshr miss latency ((Tick/Count))
system.cpu.dcache.WriteReq.avgMshrMissLatency::total 32440.339917                       # average WriteReq mshr miss latency ((Tick/Count))
system.cpu.dcache.power_state.pwrStateResidencyTicks::UNDEFINED  60974802000                       # Cumulative time (in ticks) in various power states (Tick)
system.cpu.dcache.tags.tagsInUse            63.995257                       # Average ticks per tags in use ((Tick/Count))
system.cpu.dcache.tags.totalRefs             15898018                       # Total number of references to valid blocks. (Count)
system.cpu.dcache.tags.sampledRefs             544536                       # Sample count of references to valid blocks. (Count)
system.cpu.dcache.tags.avgRefs              29.195532                       # Average number of references to valid blocks. ((Count/Count))
system.cpu.dcache.tags.warmupTick              146000                       # The tick when the warmup percentage was hit. (Tick)
system.cpu.dcache.tags.occupancies::cpu.data    63.995257                       # Average occupied blocks per tick, per requestor ((Count/Tick))
system.cpu.dcache.tags.avgOccs::cpu.data     0.999926                       # Average percentage of cache occupancy ((Ratio/Tick))
system.cpu.dcache.tags.avgOccs::total        0.999926                       # Average percentage of cache occupancy ((Ratio/Tick))
system.cpu.dcache.tags.occupanciesTaskId::1024           64                       # Occupied blocks per task id (Count)
system.cpu.dcache.tags.ageTaskId_1024::0           39                       # Occupied blocks per task id, per block age (Count)
system.cpu.dcache.tags.ageTaskId_1024::1           23                       # Occupied blocks per task id, per block age (Count)
system.cpu.dcache.tags.ageTaskId_1024::2            2                       # Occupied blocks per task id, per block age (Count)
system.cpu.dcache.tags.ratioOccsTaskId::1024            1                       # Ratio of occupied blocks and all blocks, per task id (Ratio)
system.cpu.dcache.tags.tagAccesses           32468608                       # Number of tag accesses (Count)
system.cpu.dcache.tags.dataAccesses          32468608                       # Number of data accesses (Count)
system.cpu.dcache.tags.power_state.pwrStateResidencyTicks::UNDEFINED  60974802000                       # Cumulative time (in ticks) in various power states (Tick)
system.cpu.dtb_walker_cache.blockedCycles::no_mshrs            0                       # number of cycles access was blocked (Cycle)
system.cpu.dtb_walker_cache.blockedCycles::no_targets            0                       # number of cycles access was blocked (Cycle)
system.cpu.dtb_walker_cache.blockedCauses::no_mshrs            0                       # number of times access was blocked (Count)
system.cpu.dtb_walker_cache.blockedCauses::no_targets            0                       # number of times access was blocked (Count)
system.cpu.dtb_walker_cache.avgBlocked::no_mshrs          nan                       # average number of cycles each access was blocked ((Cycle/Count))
system.cpu.dtb_walker_cache.avgBlocked::no_targets          nan                       # average number of cycles each access was blocked ((Cycle/Count))
system.cpu.dtb_walker_cache.replacements            0                       # number of replacements (Count)
system.cpu.dtb_walker_cache.power_state.pwrStateResidencyTicks::UNDEFINED  60974802000                       # Cumulative time (in ticks) in various power states (Tick)
system.cpu.dtb_walker_cache.tags.tagsInUse            0                       # Average ticks per tags in use ((Tick/Count))
system.cpu.dtb_walker_cache.tags.totalRefs            0                       # Total number of references to valid blocks. (Count)
system.cpu.dtb_walker_cache.tags.sampledRefs            0                       # Sample count of references to valid blocks. (Count)
system.cpu.dtb_walker_cache.tags.avgRefs          nan                       # Average number of references to valid blocks. ((Count/Count))
system.cpu.dtb_walker_cache.tags.warmupTick            0                       # The tick when the warmup percentage was hit. (Tick)
system.cpu.dtb_walker_cache.tags.tagAccesses            0                       # Number of tag accesses (Count)
system.cpu.dtb_walker_cache.tags.dataAccesses            0                       # Number of data accesses (Count)
system.cpu.dtb_walker_cache.tags.power_state.pwrStateResidencyTicks::UNDEFINED  60974802000                       # Cumulative time (in ticks) in various power states (Tick)
system.cpu.fetch2.intInstructions            32399478                       # Number of integer instructions successfully decoded (Count)
system.cpu.fetch2.fpInstructions               610309                       # Number of floating point instructions successfully decoded (Count)
system.cpu.fetch2.vecInstructions                   0                       # Number of SIMD instructions successfully decoded (Count)
system.cpu.fetch2.loadInstructions           11205110                       # Number of memory load instructions successfully decoded (Count)
system.cpu.fetch2.storeInstructions           5380360                       # Number of memory store instructions successfully decoded (Count)
system.cpu.fetch2.amoInstructions                   0                       # Number of memory atomic instructions successfully decoded (Count)
system.cpu.icache.demandHits::cpu.inst       15027932                       # number of demand (read+write) hits (Count)
system.cpu.icache.demandHits::total          15027932                       # number of demand (read+write) hits (Count)
system.cpu.icache.overallHits::cpu.inst      15027932                       # number of overall hits (Count)
system.cpu.icache.overallHits::total         15027932                       # number of overall hits (Count)
system.cpu.icache.demandMisses::cpu.inst       148256                       # number of demand (read+write) misses (Count)
system.cpu.icache.demandMisses::total          148256                       # number of demand (read+write) misses (Count)
system.cpu.icache.overallMisses::cpu.inst       148256                       # number of overall misses (Count)
system.cpu.icache.overallMisses::total         148256                       # number of overall misses (Count)
system.cpu.icache.demandMissLatency::cpu.inst   6599348500                       # number of demand (read+write) miss ticks (Tick)
system.cpu.icache.demandMissLatency::total   6599348500                       # number of demand (read+write) miss ticks (Tick)
system.cpu.icache.overallMissLatency::cpu.inst   6599348500                       # number of overall miss ticks (Tick)
system.cpu.icache.overallMissLatency::total   6599348500                       # number of overall miss ticks (Tick)
system.cpu.icache.demandAccesses::cpu.inst     15176188                       # number of demand (read+write) accesses (Count)
system.cpu.icache.demandAccesses::total      15176188                       # number of demand (read+write) accesses (Count)
system.cpu.icache.overallAccesses::cpu.inst     15176188                       # number of overall (read+write) accesses (Count)
system.cpu.icache.overallAccesses::total     15176188                       # number of overall (read+write) accesses (Count)
system.cpu.icache.demandMissRate::cpu.inst     0.009769                       # miss rate for demand accesses (Ratio)
system.cpu.icache.demandMissRate::total      0.009769                       # miss rate for demand accesses (Ratio)
system.cpu.icache.overallMissRate::cpu.inst     0.009769                       # miss rate for overall accesses (Ratio)
system.cpu.icache.overallMissRate::total     0.009769                       # miss rate for overall accesses (Ratio)
system.cpu.icache.demandAvgMissLatency::cpu.inst 44513.196768                       # average overall miss latency ((Cycle/Count))
system.cpu.icache.demandAvgMissLatency::total 44513.196768                       # average overall miss latency ((Cycle/Count))
system.cpu.icache.overallAvgMissLatency::cpu.inst 44513.196768                       # average overall miss latency ((Cycle/Count))
system.cpu.icache.overallAvgMissLatency::total 44513.196768                       # average overall miss latency ((Cycle/Count))
system.cpu.icache.blockedCycles::no_mshrs            0                       # number of cycles access was blocked (Cycle)
system.cpu.icache.blockedCycles::no_targets            0                       # number of cycles access was blocked (Cycle)
system.cpu.icache.blockedCauses::no_mshrs            0                       # number of times access was blocked (Count)
system.cpu.icache.blockedCauses::no_targets            0                       # number of times access was blocked (Count)
system.cpu.icache.avgBlocked::no_mshrs            nan                       # average number of cycles each access was blocked ((Cycle/Count))
system.cpu.icache.avgBlocked::no_targets          nan                       # average number of cycles each access was blocked ((Cycle/Count))
system.cpu.icache.writebacks::writebacks       147808                       # number of writebacks (Count)
system.cpu.icache.writebacks::total            147808                       # number of writebacks (Count)
system.cpu.icache.demandMshrMisses::cpu.inst       148256                       # number of demand (read+write) MSHR misses (Count)
system.cpu.icache.demandMshrMisses::total       148256                       # number of demand (read+write) MSHR misses (Count)
system.cpu.icache.overallMshrMisses::cpu.inst       148256                       # number of overall MSHR misses (Count)
system.cpu.icache.overallMshrMisses::total       148256                       # number of overall MSHR misses (Count)
system.cpu.icache.demandMshrMissLatency::cpu.inst   6451093500                       # number of demand (read+write) MSHR miss ticks (Tick)
system.cpu.icache.demandMshrMissLatency::total   6451093500                       # number of demand (read+write) MSHR miss ticks (Tick)
system.cpu.icache.overallMshrMissLatency::cpu.inst   6451093500                       # number of overall MSHR miss ticks (Tick)
system.cpu.icache.overallMshrMissLatency::total   6451093500                       # number of overall MSHR miss ticks (Tick)
system.cpu.icache.demandMshrMissRate::cpu.inst     0.009769                       # mshr miss ratio for demand accesses (Ratio)
system.cpu.icache.demandMshrMissRate::total     0.009769                       # mshr miss ratio for demand accesses (Ratio)
system.cpu.icache.overallMshrMissRate::cpu.inst     0.009769                       # mshr miss ratio for overall accesses (Ratio)
system.cpu.icache.overallMshrMissRate::total     0.009769                       # mshr miss ratio for overall accesses (Ratio)
system.cpu.icache.demandAvgMshrMissLatency::cpu.inst 43513.203513                       # average overall mshr miss latency ((Cycle/Count))
system.cpu.icache.demandAvgMshrMissLatency::total 43513.203513                       # average overall mshr miss latency ((Cycle/Count))
system.cpu.icache.overallAvgMshrMissLatency::cpu.inst 43513.203513                       # average overall mshr miss latency ((Cycle/Count))
system.cpu.icache.overallAvgMshrMissLatency::total 43513.203513                       # average overall mshr miss latency ((Cycle/Count))
system.cpu.icache.replacements                 147808                       # number of replacements (Count)
system.cpu.icache.ReadReq.hits::cpu.inst     15027932                       # number of ReadReq hits (Count)
system.cpu.icache.ReadReq.hits::total        15027932                       # number of ReadReq hits (Count)
system.cpu.icache.ReadReq.misses::cpu.inst       148256                       # number of ReadReq misses (Count)
system.cpu.icache.ReadReq.misses::total        148256                       # number of ReadReq misses (Count)
system.cpu.icache.ReadReq.missLatency::cpu.inst   6599348500                       # number of ReadReq miss ticks (Tick)
system.cpu.icache.ReadReq.missLatency::total   6599348500                       # number of ReadReq miss ticks (Tick)
system.cpu.icache.ReadReq.accesses::cpu.inst     15176188                       # number of ReadReq accesses(hits+misses) (Count)
system.cpu.icache.ReadReq.accesses::total     15176188                       # number of ReadReq accesses(hits+misses) (Count)
system.cpu.icache.ReadReq.missRate::cpu.inst     0.009769                       # miss rate for ReadReq accesses (Ratio)
system.cpu.icache.ReadReq.missRate::total     0.009769                       # miss rate for ReadReq accesses (Ratio)
system.cpu.icache.ReadReq.avgMissLatency::cpu.inst 44513.196768                       # average ReadReq miss latency ((Tick/Count))
system.cpu.icache.ReadReq.avgMissLatency::total 44513.196768                       # average ReadReq miss latency ((Tick/Count))
system.cpu.icache.ReadReq.mshrMisses::cpu.inst       148256                       # number of ReadReq MSHR misses (Count)
system.cpu.icache.ReadReq.mshrMisses::total       148256                       # number of ReadReq MSHR misses (Count)
system.cpu.icache.ReadReq.mshrMissLatency::cpu.inst   6451093500                       # number of ReadReq MSHR miss ticks (Tick)
system.cpu.icache.ReadReq.mshrMissLatency::total   6451093500                       # number of ReadReq MSHR miss ticks (Tick)
system.cpu.icache.ReadReq.mshrMissRate::cpu.inst     0.009769                       # mshr miss rate for ReadReq accesses (Ratio)
system.cpu.icache.ReadReq.mshrMissRate::total     0.009769                       # mshr miss rate for ReadReq accesses (Ratio)
system.cpu.icache.ReadReq.avgMshrMissLatency::cpu.inst 43513.203513                       # average ReadReq mshr miss latency ((Tick/Count))
system.cpu.icache.ReadReq.avgMshrMissLatency::total 43513.203513                       # average ReadReq mshr miss latency ((Tick/Count))
system.cpu.icache.power_state.pwrStateResidencyTicks::UNDEFINED  60974802000                       # Cumulative time (in ticks) in various power states (Tick)
system.cpu.icache.tags.tagsInUse           382.663481                       # Average ticks per tags in use ((Tick/Count))
system.cpu.icache.tags.totalRefs             15176187                       # Total number of references to valid blocks. (Count)
system.cpu.icache.tags.sampledRefs             148255                       # Sample count of references to valid blocks. (Count)
system.cpu.icache.tags.avgRefs             102.365431                       # Average number of references to valid blocks. ((Count/Count))
system.cpu.icache.tags.warmupTick               77000                       # The tick when the warmup percentage was hit. (Tick)
system.cpu.icache.tags.occupancies::cpu.inst   382.663481                       # Average occupied blocks per tick, per requestor ((Count/Tick))
system.cpu.icache.tags.avgOccs::cpu.inst     0.747390                       # Average percentage of cache occupancy ((Ratio/Tick))
system.cpu.icache.tags.avgOccs::total        0.747390                       # Average percentage of cache occupancy ((Ratio/Tick))
system.cpu.icache.tags.occupanciesTaskId::1024          447                       # Occupied blocks per task id (Count)
system.cpu.icache.tags.ageTaskId_1024::0          100                       # Occupied blocks per task id, per block age (Count)
system.cpu.icache.tags.ageTaskId_1024::1            2                       # Occupied blocks per task id, per block age (Count)
system.cpu.icache.tags.ageTaskId_1024::2           23                       # Occupied blocks per task id, per block age (Count)
system.cpu.icache.tags.ageTaskId_1024::3           64                       # Occupied blocks per task id, per block age (Count)
system.cpu.icache.tags.ageTaskId_1024::4          258                       # Occupied blocks per task id, per block age (Count)
system.cpu.icache.tags.ratioOccsTaskId::1024     0.873047                       # Ratio of occupied blocks and all blocks, per task id (Ratio)
system.cpu.icache.tags.tagAccesses           30500631                       # Number of tag accesses (Count)
system.cpu.icache.tags.dataAccesses          30500631                       # Number of data accesses (Count)
system.cpu.icache.tags.power_state.pwrStateResidencyTicks::UNDEFINED  60974802000                       # Cumulative time (in ticks) in various power states (Tick)
system.cpu.itb_walker_cache.blockedCycles::no_mshrs            0                       # number of cycles access was blocked (Cycle)
system.cpu.itb_walker_cache.blockedCycles::no_targets            0                       # number of cycles access was blocked (Cycle)
system.cpu.itb_walker_cache.blockedCauses::no_mshrs            0                       # number of times access was blocked (Count)
system.cpu.itb_walker_cache.blockedCauses::no_targets            0                       # number of times access was blocked (Count)
system.cpu.itb_walker_cache.avgBlocked::no_mshrs          nan                       # average number of cycles each access was blocked ((Cycle/Count))
system.cpu.itb_walker_cache.avgBlocked::no_targets          nan                       # average number of cycles each access was blocked ((Cycle/Count))
system.cpu.itb_walker_cache.replacements            0                       # number of replacements (Count)
system.cpu.itb_walker_cache.power_state.pwrStateResidencyTicks::UNDEFINED  60974802000                       # Cumulative time (in ticks) in various power states (Tick)
system.cpu.itb_walker_cache.tags.tagsInUse            0                       # Average ticks per tags in use ((Tick/Count))
system.cpu.itb_walker_cache.tags.totalRefs            0                       # Total number of references to valid blocks. (Count)
system.cpu.itb_walker_cache.tags.sampledRefs            0                       # Sample count of references to valid blocks. (Count)
system.cpu.itb_walker_cache.tags.avgRefs          nan                       # Average number of references to valid blocks. ((Count/Count))
system.cpu.itb_walker_cache.tags.warmupTick            0                       # The tick when the warmup percentage was hit. (Tick)
system.cpu.itb_walker_cache.tags.tagAccesses            0                       # Number of tag accesses (Count)
system.cpu.itb_walker_cache.tags.dataAccesses            0                       # Number of data accesses (Count)
system.cpu.itb_walker_cache.tags.power_state.pwrStateResidencyTicks::UNDEFINED  60974802000                       # Cumulative time (in ticks) in various power states (Tick)
system.cpu.mmu.dtb.readHits                         0                       # read hits (Count)
system.cpu.mmu.dtb.readMisses                       0                       # read misses (Count)
system.cpu.mmu.dtb.readAccesses                     0                       # read accesses (Count)
system.cpu.mmu.dtb.writeHits                        0                       # write hits (Count)
system.cpu.mmu.dtb.writeMisses                      0                       # write misses (Count)
system.cpu.mmu.dtb.writeAccesses                    0                       # write accesses (Count)
system.cpu.mmu.dtb.hits                             0                       # Total TLB (read and write) hits (Count)
system.cpu.mmu.dtb.misses                           0                       # Total TLB (read and write) misses (Count)
system.cpu.mmu.dtb.accesses                         0                       # Total TLB (read and write) accesses (Count)
system.cpu.mmu.dtb.walker.power_state.pwrStateResidencyTicks::UNDEFINED  60974802000                       # Cumulative time (in ticks) in various power states (Tick)
system.cpu.mmu.itb.readHits                         0                       # read hits (Count)
system.cpu.mmu.itb.readMisses                       0                       # read misses (Count)
system.cpu.mmu.itb.readAccesses                     0                       # read accesses (Count)
system.cpu.mmu.itb.writeHits                        0                       # write hits (Count)
system.cpu.mmu.itb.writeMisses                      0                       # write misses (Count)
system.cpu.mmu.itb.writeAccesses                    0                       # write accesses (Count)
system.cpu.mmu.itb.hits                             0                       # Total TLB (read and write) hits (Count)
system.cpu.mmu.itb.misses                           0                       # Total TLB (read and write) misses (Count)
system.cpu.mmu.itb.accesses                         0                       # Total TLB (read and write) accesses (Count)
system.cpu.mmu.itb.walker.power_state.pwrStateResidencyTicks::UNDEFINED  60974802000                       # Cumulative time (in ticks) in various power states (Tick)
system.cpu.power_state.pwrStateResidencyTicks::ON  60974802000                       # Cumulative time (in ticks) in various power states (Tick)
system.cpu.thread_0.numInsts                 48986915                       # Number of Instructions committed (Count)
system.cpu.thread_0.numOps                   48986930                       # Number of Ops committed (Count)
system.cpu.thread_0.numMemRefs                      0                       # Number of Memory References (Count)
system.cpu.workload.numSyscalls                  4121                       # Number of system calls (Count)
system.cpu_clk_domain.clock                       500                       # Clock period in ticks (Tick)
system.cpu_voltage_domain.voltage                   1                       # Voltage in Volts (Volt)
system.mem_ctrls.avgPriority_writebacks::samples    217603.00                       # Average QoS priority value for accepted requests (Count)
system.mem_ctrls.avgPriority_cpu.inst::samples     72264.00                       # Average QoS priority value for accepted requests (Count)
system.mem_ctrls.avgPriority_cpu.data::samples    463707.00                       # Average QoS priority value for accepted requests (Count)
system.mem_ctrls.priorityMinLatency      0.000000018750                       # per QoS priority minimum request to response latency (Second)
system.mem_ctrls.priorityMaxLatency      0.015702933250                       # per QoS priority maximum request to response latency (Second)
system.mem_ctrls.numReadWriteTurnArounds        12911                       # Number of turnarounds from READ to WRITE (Count)
system.mem_ctrls.numWriteReadTurnArounds        12911                       # Number of turnarounds from WRITE to READ (Count)
system.mem_ctrls.numStayReadState             1327264                       # Number of times bus staying in READ state (Count)
system.mem_ctrls.numStayWriteState             204929                       # Number of times bus staying in WRITE state (Count)
system.mem_ctrls.readReqs                      692791                       # Number of read requests accepted (Count)
system.mem_ctrls.writeReqs                     261090                       # Number of write requests accepted (Count)
system.mem_ctrls.readBursts                    692791                       # Number of controller read bursts, including those serviced by the write queue (Count)
system.mem_ctrls.writeBursts                   261090                       # Number of controller write bursts, including those merged in the write queue (Count)
system.mem_ctrls.servicedByWrQ                 156820                       # Number of controller read bursts serviced by the write queue (Count)
system.mem_ctrls.mergedWrBursts                 43487                       # Number of controller write bursts merged with an existing one (Count)
system.mem_ctrls.neitherReadNorWriteReqs            0                       # Number of requests that are neither read nor write (Count)
system.mem_ctrls.avgRdQLen                       1.15                       # Average read queue length when enqueuing ((Count/Tick))
system.mem_ctrls.avgWrQLen                      25.44                       # Average write queue length when enqueuing ((Count/Tick))
system.mem_ctrls.numRdRetry                         0                       # Number of times read queue was full causing retry (Count)
system.mem_ctrls.numWrRetry                         0                       # Number of times write queue was full causing retry (Count)
system.mem_ctrls.readPktSize::0                     0                       # Read request sizes (log2) (Count)
system.mem_ctrls.readPktSize::1                     0                       # Read request sizes (log2) (Count)
system.mem_ctrls.readPktSize::2                     0                       # Read request sizes (log2) (Count)
system.mem_ctrls.readPktSize::3                     0                       # Read request sizes (log2) (Count)
system.mem_ctrls.readPktSize::4                     0                       # Read request sizes (log2) (Count)
system.mem_ctrls.readPktSize::5                     0                       # Read request sizes (log2) (Count)
system.mem_ctrls.readPktSize::6                692791                       # Read request sizes (log2) (Count)
system.mem_ctrls.writePktSize::0                    0                       # Write request sizes (log2) (Count)
system.mem_ctrls.writePktSize::1                    0                       # Write request sizes (log2) (Count)
system.mem_ctrls.writePktSize::2                    0                       # Write request sizes (log2) (Count)
system.mem_ctrls.writePktSize::3                    0                       # Write request sizes (log2) (Count)
system.mem_ctrls.writePktSize::4                    0                       # Write request sizes (log2) (Count)
system.mem_ctrls.writePktSize::5                    0                       # Write request sizes (log2) (Count)
system.mem_ctrls.writePktSize::6               261090                       # Write request sizes (log2) (Count)
system.mem_ctrls.rdQLenPdf::0                  509443                       # What read queue length does an incoming req see (Count)
system.mem_ctrls.rdQLenPdf::1                   26205                       # What read queue length does an incoming req see (Count)
system.mem_ctrls.rdQLenPdf::2                     323                       # What read queue length does an incoming req see (Count)
system.mem_ctrls.rdQLenPdf::3                       0                       # What read queue length does an incoming req see (Count)
system.mem_ctrls.rdQLenPdf::4                       0                       # What read queue length does an incoming req see (Count)
system.mem_ctrls.rdQLenPdf::5                       0                       # What read queue length does an incoming req see (Count)
system.mem_ctrls.rdQLenPdf::6                       0                       # What read queue length does an incoming req see (Count)
system.mem_ctrls.rdQLenPdf::7                       0                       # What read queue length does an incoming req see (Count)
system.mem_ctrls.rdQLenPdf::8                       0                       # What read queue length does an incoming req see (Count)
system.mem_ctrls.rdQLenPdf::9                       0                       # What read queue length does an incoming req see (Count)
system.mem_ctrls.rdQLenPdf::10                      0                       # What read queue length does an incoming req see (Count)
system.mem_ctrls.rdQLenPdf::11                      0                       # What read queue length does an incoming req see (Count)
system.mem_ctrls.rdQLenPdf::12                      0                       # What read queue length does an incoming req see (Count)
system.mem_ctrls.rdQLenPdf::13                      0                       # What read queue length does an incoming req see (Count)
system.mem_ctrls.rdQLenPdf::14                      0                       # What read queue length does an incoming req see (Count)
system.mem_ctrls.rdQLenPdf::15                      0                       # What read queue length does an incoming req see (Count)
system.mem_ctrls.rdQLenPdf::16                      0                       # What read queue length does an incoming req see (Count)
system.mem_ctrls.rdQLenPdf::17                      0                       # What read queue length does an incoming req see (Count)
system.mem_ctrls.rdQLenPdf::18                      0                       # What read queue length does an incoming req see (Count)
system.mem_ctrls.rdQLenPdf::19                      0                       # What read queue length does an incoming req see (Count)
system.mem_ctrls.rdQLenPdf::20                      0                       # What read queue length does an incoming req see (Count)
system.mem_ctrls.rdQLenPdf::21                      0                       # What read queue length does an incoming req see (Count)
system.mem_ctrls.rdQLenPdf::22                      0                       # What read queue length does an incoming req see (Count)
system.mem_ctrls.rdQLenPdf::23                      0                       # What read queue length does an incoming req see (Count)
system.mem_ctrls.rdQLenPdf::24                      0                       # What read queue length does an incoming req see (Count)
system.mem_ctrls.rdQLenPdf::25                      0                       # What read queue length does an incoming req see (Count)
system.mem_ctrls.rdQLenPdf::26                      0                       # What read queue length does an incoming req see (Count)
system.mem_ctrls.rdQLenPdf::27                      0                       # What read queue length does an incoming req see (Count)
system.mem_ctrls.rdQLenPdf::28                      0                       # What read queue length does an incoming req see (Count)
system.mem_ctrls.rdQLenPdf::29                      0                       # What read queue length does an incoming req see (Count)
system.mem_ctrls.rdQLenPdf::30                      0                       # What read queue length does an incoming req see (Count)
system.mem_ctrls.rdQLenPdf::31                      0                       # What read queue length does an incoming req see (Count)
system.mem_ctrls.wrQLenPdf::0                       1                       # What write queue length does an incoming req see (Count)
system.mem_ctrls.wrQLenPdf::1                       1                       # What write queue length does an incoming req see (Count)
system.mem_ctrls.wrQLenPdf::2                       1                       # What write queue length does an incoming req see (Count)
system.mem_ctrls.wrQLenPdf::3                       1                       # What write queue length does an incoming req see (Count)
system.mem_ctrls.wrQLenPdf::4                       1                       # What write queue length does an incoming req see (Count)
system.mem_ctrls.wrQLenPdf::5                       1                       # What write queue length does an incoming req see (Count)
system.mem_ctrls.wrQLenPdf::6                       1                       # What write queue length does an incoming req see (Count)
system.mem_ctrls.wrQLenPdf::7                       1                       # What write queue length does an incoming req see (Count)
system.mem_ctrls.wrQLenPdf::8                       1                       # What write queue length does an incoming req see (Count)
system.mem_ctrls.wrQLenPdf::9                       1                       # What write queue length does an incoming req see (Count)
system.mem_ctrls.wrQLenPdf::10                      1                       # What write queue length does an incoming req see (Count)
system.mem_ctrls.wrQLenPdf::11                      1                       # What write queue length does an incoming req see (Count)
system.mem_ctrls.wrQLenPdf::12                      1                       # What write queue length does an incoming req see (Count)
system.mem_ctrls.wrQLenPdf::13                      1                       # What write queue length does an incoming req see (Count)
system.mem_ctrls.wrQLenPdf::14                      1                       # What write queue length does an incoming req see (Count)
system.mem_ctrls.wrQLenPdf::15                   3287                       # What write queue length does an incoming req see (Count)
system.mem_ctrls.wrQLenPdf::16                   4128                       # What write queue length does an incoming req see (Count)
system.mem_ctrls.wrQLenPdf::17                  10825                       # What write queue length does an incoming req see (Count)
system.mem_ctrls.wrQLenPdf::18                  12862                       # What write queue length does an incoming req see (Count)
system.mem_ctrls.wrQLenPdf::19                  13290                       # What write queue length does an incoming req see (Count)
system.mem_ctrls.wrQLenPdf::20                  13407                       # What write queue length does an incoming req see (Count)
system.mem_ctrls.wrQLenPdf::21                  13882                       # What write queue length does an incoming req see (Count)
system.mem_ctrls.wrQLenPdf::22                  14968                       # What write queue length does an incoming req see (Count)
system.mem_ctrls.wrQLenPdf::23                  13523                       # What write queue length does an incoming req see (Count)
system.mem_ctrls.wrQLenPdf::24                  13170                       # What write queue length does an incoming req see (Count)
system.mem_ctrls.wrQLenPdf::25                  13079                       # What write queue length does an incoming req see (Count)
system.mem_ctrls.wrQLenPdf::26                  13517                       # What write queue length does an incoming req see (Count)
system.mem_ctrls.wrQLenPdf::27                  12937                       # What write queue length does an incoming req see (Count)
system.mem_ctrls.wrQLenPdf::28                  12916                       # What write queue length does an incoming req see (Count)
system.mem_ctrls.wrQLenPdf::29                  12948                       # What write queue length does an incoming req see (Count)
system.mem_ctrls.wrQLenPdf::30                  12912                       # What write queue length does an incoming req see (Count)
system.mem_ctrls.wrQLenPdf::31                  12911                       # What write queue length does an incoming req see (Count)
system.mem_ctrls.wrQLenPdf::32                  12911                       # What write queue length does an incoming req see (Count)
system.mem_ctrls.wrQLenPdf::33                     56                       # What write queue length does an incoming req see (Count)
system.mem_ctrls.wrQLenPdf::34                     36                       # What write queue length does an incoming req see (Count)
system.mem_ctrls.wrQLenPdf::35                     16                       # What write queue length does an incoming req see (Count)
system.mem_ctrls.wrQLenPdf::36                      6                       # What write queue length does an incoming req see (Count)
system.mem_ctrls.wrQLenPdf::37                      1                       # What write queue length does an incoming req see (Count)
system.mem_ctrls.wrQLenPdf::38                      0                       # What write queue length does an incoming req see (Count)
system.mem_ctrls.wrQLenPdf::39                      0                       # What write queue length does an incoming req see (Count)
system.mem_ctrls.wrQLenPdf::40                      0                       # What write queue length does an incoming req see (Count)
system.mem_ctrls.wrQLenPdf::41                      0                       # What write queue length does an incoming req see (Count)
system.mem_ctrls.wrQLenPdf::42                      0                       # What write queue length does an incoming req see (Count)
system.mem_ctrls.wrQLenPdf::43                      0                       # What write queue length does an incoming req see (Count)
system.mem_ctrls.wrQLenPdf::44                      0                       # What write queue length does an incoming req see (Count)
system.mem_ctrls.wrQLenPdf::45                      0                       # What write queue length does an incoming req see (Count)
system.mem_ctrls.wrQLenPdf::46                      0                       # What write queue length does an incoming req see (Count)
system.mem_ctrls.wrQLenPdf::47                      0                       # What write queue length does an incoming req see (Count)
system.mem_ctrls.wrQLenPdf::48                      0                       # What write queue length does an incoming req see (Count)
system.mem_ctrls.wrQLenPdf::49                      0                       # What write queue length does an incoming req see (Count)
system.mem_ctrls.wrQLenPdf::50                      0                       # What write queue length does an incoming req see (Count)
system.mem_ctrls.wrQLenPdf::51                      0                       # What write queue length does an incoming req see (Count)
system.mem_ctrls.wrQLenPdf::52                      0                       # What write queue length does an incoming req see (Count)
system.mem_ctrls.wrQLenPdf::53                      0                       # What write queue length does an incoming req see (Count)
system.mem_ctrls.wrQLenPdf::54                      0                       # What write queue length does an incoming req see (Count)
system.mem_ctrls.wrQLenPdf::55                      0                       # What write queue length does an incoming req see (Count)
system.mem_ctrls.wrQLenPdf::56                      0                       # What write queue length does an incoming req see (Count)
system.mem_ctrls.wrQLenPdf::57                      0                       # What write queue length does an incoming req see (Count)
system.mem_ctrls.wrQLenPdf::58                      0                       # What write queue length does an incoming req see (Count)
system.mem_ctrls.wrQLenPdf::59                      0                       # What write queue length does an incoming req see (Count)
system.mem_ctrls.wrQLenPdf::60                      0                       # What write queue length does an incoming req see (Count)
system.mem_ctrls.wrQLenPdf::61                      0                       # What write queue length does an incoming req see (Count)
system.mem_ctrls.wrQLenPdf::62                      0                       # What write queue length does an incoming req see (Count)
system.mem_ctrls.wrQLenPdf::63                      0                       # What write queue length does an incoming req see (Count)
system.mem_ctrls.rdPerTurnAround::samples        12911                       # Reads before turning the bus around for writes (Count)
system.mem_ctrls.rdPerTurnAround::mean      41.512586                       # Reads before turning the bus around for writes (Count)
system.mem_ctrls.rdPerTurnAround::gmean     16.101436                       # Reads before turning the bus around for writes (Count)
system.mem_ctrls.rdPerTurnAround::stdev    381.193933                       # Reads before turning the bus around for writes (Count)
system.mem_ctrls.rdPerTurnAround::0-511         12867     99.66%     99.66% # Reads before turning the bus around for writes (Count)
system.mem_ctrls.rdPerTurnAround::1024-1535            1      0.01%     99.67% # Reads before turning the bus around for writes (Count)
system.mem_ctrls.rdPerTurnAround::1536-2047            4      0.03%     99.70% # Reads before turning the bus around for writes (Count)
system.mem_ctrls.rdPerTurnAround::4096-4607            4      0.03%     99.73% # Reads before turning the bus around for writes (Count)
system.mem_ctrls.rdPerTurnAround::4608-5119            3      0.02%     99.75% # Reads before turning the bus around for writes (Count)
system.mem_ctrls.rdPerTurnAround::5120-5631            2      0.02%     99.77% # Reads before turning the bus around for writes (Count)
system.mem_ctrls.rdPerTurnAround::5632-6143            6      0.05%     99.81% # Reads before turning the bus around for writes (Count)
system.mem_ctrls.rdPerTurnAround::6144-6655            3      0.02%     99.84% # Reads before turning the bus around for writes (Count)
system.mem_ctrls.rdPerTurnAround::6656-7167            2      0.02%     99.85% # Reads before turning the bus around for writes (Count)
system.mem_ctrls.rdPerTurnAround::7168-7679            2      0.02%     99.87% # Reads before turning the bus around for writes (Count)
system.mem_ctrls.rdPerTurnAround::7680-8191            5      0.04%     99.91% # Reads before turning the bus around for writes (Count)
system.mem_ctrls.rdPerTurnAround::8192-8703           12      0.09%    100.00% # Reads before turning the bus around for writes (Count)
system.mem_ctrls.rdPerTurnAround::total         12911                       # Reads before turning the bus around for writes (Count)
system.mem_ctrls.wrPerTurnAround::samples        12911                       # Writes before turning the bus around for reads (Count)
system.mem_ctrls.wrPerTurnAround::mean      16.852684                       # Writes before turning the bus around for reads (Count)
system.mem_ctrls.wrPerTurnAround::gmean     16.801650                       # Writes before turning the bus around for reads (Count)
system.mem_ctrls.wrPerTurnAround::stdev      1.349694                       # Writes before turning the bus around for reads (Count)
system.mem_ctrls.wrPerTurnAround::16             8881     68.79%     68.79% # Writes before turning the bus around for reads (Count)
system.mem_ctrls.wrPerTurnAround::17              276      2.14%     70.92% # Writes before turning the bus around for reads (Count)
system.mem_ctrls.wrPerTurnAround::18             1256      9.73%     80.65% # Writes before turning the bus around for reads (Count)
system.mem_ctrls.wrPerTurnAround::19             1787     13.84%     94.49% # Writes before turning the bus around for reads (Count)
system.mem_ctrls.wrPerTurnAround::20              696      5.39%     99.88% # Writes before turning the bus around for reads (Count)
system.mem_ctrls.wrPerTurnAround::21               14      0.11%     99.99% # Writes before turning the bus around for reads (Count)
system.mem_ctrls.wrPerTurnAround::22                1      0.01%    100.00% # Writes before turning the bus around for reads (Count)
system.mem_ctrls.wrPerTurnAround::total         12911                       # Writes before turning the bus around for reads (Count)
system.mem_ctrls.bytesReadWrQ                10036480                       # Total number of bytes read from write queue (Byte)
system.mem_ctrls.bytesReadSys                44338624                       # Total read bytes from the system interface side (Byte)
system.mem_ctrls.bytesWrittenSys             16709760                       # Total written bytes from the system interface side (Byte)
system.mem_ctrls.avgRdBWSys              727163066.47457421                       # Average system read bandwidth in Byte/s ((Byte/Second))
system.mem_ctrls.avgWrBWSys              274043694.31162727                       # Average system write bandwidth in Byte/s ((Byte/Second))
system.mem_ctrls.totGap                   60974796500                       # Total gap between requests (Tick)
system.mem_ctrls.avgGap                      63922.85                       # Average gap between requests ((Tick/Count))
system.mem_ctrls.requestorReadBytes::cpu.inst      4624896                       # Per-requestor bytes read from memory (Byte)
system.mem_ctrls.requestorReadBytes::cpu.data     29677248                       # Per-requestor bytes read from memory (Byte)
system.mem_ctrls.requestorWriteBytes::writebacks     13925440                       # Per-requestor bytes write to memory (Byte)
system.mem_ctrls.requestorReadRate::cpu.inst 75849299.190836235881                       # Per-requestor bytes read from memory rate ((Byte/Second))
system.mem_ctrls.requestorReadRate::cpu.data 486713314.788623631001                       # Per-requestor bytes read from memory rate ((Byte/Second))
system.mem_ctrls.requestorWriteRate::writebacks 228380241.398733854294                       # Per-requestor bytes write to memory rate ((Byte/Second))
system.mem_ctrls.requestorReadAccesses::cpu.inst       148255                       # Per-requestor read serviced memory accesses (Count)
system.mem_ctrls.requestorReadAccesses::cpu.data       544536                       # Per-requestor read serviced memory accesses (Count)
system.mem_ctrls.requestorWriteAccesses::writebacks       261090                       # Per-requestor write serviced memory accesses (Count)
system.mem_ctrls.requestorReadTotalLat::cpu.inst   2399281500                       # Per-requestor read total memory access latency (Tick)
system.mem_ctrls.requestorReadTotalLat::cpu.data  12640894500                       # Per-requestor read total memory access latency (Tick)
system.mem_ctrls.requestorWriteTotalLat::writebacks 1489487412750                       # Per-requestor write total memory access latency (Tick)
system.mem_ctrls.requestorReadAvgLat::cpu.inst     16183.48                       # Per-requestor read average memory access latency ((Tick/Count))
system.mem_ctrls.requestorReadAvgLat::cpu.data     23214.07                       # Per-requestor read average memory access latency ((Tick/Count))
system.mem_ctrls.requestorWriteAvgLat::writebacks   5704881.12                       # Per-requestor write average memory access latency ((Tick/Count))
system.mem_ctrls.dram.bytesRead::cpu.inst      9488320                       # Number of bytes read from this memory (Byte)
system.mem_ctrls.dram.bytesRead::cpu.data     34850304                       # Number of bytes read from this memory (Byte)
system.mem_ctrls.dram.bytesRead::total       44338624                       # Number of bytes read from this memory (Byte)
system.mem_ctrls.dram.bytesInstRead::cpu.inst      9488320                       # Number of instructions bytes read from this memory (Byte)
system.mem_ctrls.dram.bytesInstRead::total      9488320                       # Number of instructions bytes read from this memory (Byte)
system.mem_ctrls.dram.bytesWritten::writebacks      7250048                       # Number of bytes written to this memory (Byte)
system.mem_ctrls.dram.bytesWritten::total      7250048                       # Number of bytes written to this memory (Byte)
system.mem_ctrls.dram.numReads::cpu.inst       148255                       # Number of read requests responded to by this memory (Count)
system.mem_ctrls.dram.numReads::cpu.data       544536                       # Number of read requests responded to by this memory (Count)
system.mem_ctrls.dram.numReads::total          692791                       # Number of read requests responded to by this memory (Count)
system.mem_ctrls.dram.numWrites::writebacks       113282                       # Number of write requests responded to by this memory (Count)
system.mem_ctrls.dram.numWrites::total         113282                       # Number of write requests responded to by this memory (Count)
system.mem_ctrls.dram.bwRead::cpu.inst      155610509                       # Total read bandwidth from this memory ((Byte/Second))
system.mem_ctrls.dram.bwRead::cpu.data      571552557                       # Total read bandwidth from this memory ((Byte/Second))
system.mem_ctrls.dram.bwRead::total         727163066                       # Total read bandwidth from this memory ((Byte/Second))
system.mem_ctrls.dram.bwInstRead::cpu.inst    155610509                       # Instruction read bandwidth from this memory ((Byte/Second))
system.mem_ctrls.dram.bwInstRead::total     155610509                       # Instruction read bandwidth from this memory ((Byte/Second))
system.mem_ctrls.dram.bwWrite::writebacks    118902362                       # Write bandwidth from this memory ((Byte/Second))
system.mem_ctrls.dram.bwWrite::total        118902362                       # Write bandwidth from this memory ((Byte/Second))
system.mem_ctrls.dram.bwTotal::writebacks    118902362                       # Total bandwidth to/from this memory ((Byte/Second))
system.mem_ctrls.dram.bwTotal::cpu.inst     155610509                       # Total bandwidth to/from this memory ((Byte/Second))
system.mem_ctrls.dram.bwTotal::cpu.data     571552557                       # Total bandwidth to/from this memory ((Byte/Second))
system.mem_ctrls.dram.bwTotal::total        846065429                       # Total bandwidth to/from this memory ((Byte/Second))
system.mem_ctrls.dram.readBursts               535971                       # Number of DRAM read bursts (Count)
system.mem_ctrls.dram.writeBursts              217585                       # Number of DRAM write bursts (Count)
system.mem_ctrls.dram.perBankRdBursts::0         1454                       # Per bank write bursts (Count)
system.mem_ctrls.dram.perBankRdBursts::1        14049                       # Per bank write bursts (Count)
system.mem_ctrls.dram.perBankRdBursts::2        36275                       # Per bank write bursts (Count)
system.mem_ctrls.dram.perBankRdBursts::3        29880                       # Per bank write bursts (Count)
system.mem_ctrls.dram.perBankRdBursts::4        39816                       # Per bank write bursts (Count)
system.mem_ctrls.dram.perBankRdBursts::5        79087                       # Per bank write bursts (Count)
system.mem_ctrls.dram.perBankRdBursts::6         1111                       # Per bank write bursts (Count)
system.mem_ctrls.dram.perBankRdBursts::7        20808                       # Per bank write bursts (Count)
system.mem_ctrls.dram.perBankRdBursts::8         2124                       # Per bank write bursts (Count)
system.mem_ctrls.dram.perBankRdBursts::9         2134                       # Per bank write bursts (Count)
system.mem_ctrls.dram.perBankRdBursts::10        17749                       # Per bank write bursts (Count)
system.mem_ctrls.dram.perBankRdBursts::11        66253                       # Per bank write bursts (Count)
system.mem_ctrls.dram.perBankRdBursts::12        75592                       # Per bank write bursts (Count)
system.mem_ctrls.dram.perBankRdBursts::13        76923                       # Per bank write bursts (Count)
system.mem_ctrls.dram.perBankRdBursts::14        63182                       # Per bank write bursts (Count)
system.mem_ctrls.dram.perBankRdBursts::15         9534                       # Per bank write bursts (Count)
system.mem_ctrls.dram.perBankWrBursts::0          499                       # Per bank write bursts (Count)
system.mem_ctrls.dram.perBankWrBursts::1          575                       # Per bank write bursts (Count)
system.mem_ctrls.dram.perBankWrBursts::2          491                       # Per bank write bursts (Count)
system.mem_ctrls.dram.perBankWrBursts::3          625                       # Per bank write bursts (Count)
system.mem_ctrls.dram.perBankWrBursts::4        12298                       # Per bank write bursts (Count)
system.mem_ctrls.dram.perBankWrBursts::5       107860                       # Per bank write bursts (Count)
system.mem_ctrls.dram.perBankWrBursts::6          422                       # Per bank write bursts (Count)
system.mem_ctrls.dram.perBankWrBursts::7        29212                       # Per bank write bursts (Count)
system.mem_ctrls.dram.perBankWrBursts::8          523                       # Per bank write bursts (Count)
system.mem_ctrls.dram.perBankWrBursts::9          528                       # Per bank write bursts (Count)
system.mem_ctrls.dram.perBankWrBursts::10        16815                       # Per bank write bursts (Count)
system.mem_ctrls.dram.perBankWrBursts::11          532                       # Per bank write bursts (Count)
system.mem_ctrls.dram.perBankWrBursts::12        16906                       # Per bank write bursts (Count)
system.mem_ctrls.dram.perBankWrBursts::13        29211                       # Per bank write bursts (Count)
system.mem_ctrls.dram.perBankWrBursts::14          537                       # Per bank write bursts (Count)
system.mem_ctrls.dram.perBankWrBursts::15          551                       # Per bank write bursts (Count)
system.mem_ctrls.dram.totQLat              4990719750                       # Total ticks spent queuing (Tick)
system.mem_ctrls.dram.totBusLat            2679855000                       # Total ticks spent in databus transfers (Tick)
system.mem_ctrls.dram.totMemAccLat        15040176000                       # Total ticks spent from burst creation until serviced by the DRAM (Tick)
system.mem_ctrls.dram.avgQLat                 9311.55                       # Average queueing delay per DRAM burst ((Tick/Count))
system.mem_ctrls.dram.avgBusLat               5000.00                       # Average bus latency per DRAM burst ((Tick/Count))
system.mem_ctrls.dram.avgMemAccLat           28061.55                       # Average memory access latency per DRAM burst ((Tick/Count))
system.mem_ctrls.dram.readRowHits              417381                       # Number of row buffer hits during reads (Count)
system.mem_ctrls.dram.writeRowHits             192348                       # Number of row buffer hits during writes (Count)
system.mem_ctrls.dram.readRowHitRate            77.87                       # Row buffer hit rate for reads (Ratio)
system.mem_ctrls.dram.writeRowHitRate           88.40                       # Row buffer hit rate for writes (Ratio)
system.mem_ctrls.dram.bytesPerActivate::samples       143823                       # Bytes accessed per row activation (Byte)
system.mem_ctrls.dram.bytesPerActivate::mean   335.322389                       # Bytes accessed per row activation (Byte)
system.mem_ctrls.dram.bytesPerActivate::gmean   193.478643                       # Bytes accessed per row activation (Byte)
system.mem_ctrls.dram.bytesPerActivate::stdev   342.033333                       # Bytes accessed per row activation (Byte)
system.mem_ctrls.dram.bytesPerActivate::0-127        55152     38.35%     38.35% # Bytes accessed per row activation (Byte)
system.mem_ctrls.dram.bytesPerActivate::128-255        26224     18.23%     56.58% # Bytes accessed per row activation (Byte)
system.mem_ctrls.dram.bytesPerActivate::256-383        12782      8.89%     65.47% # Bytes accessed per row activation (Byte)
system.mem_ctrls.dram.bytesPerActivate::384-511        13189      9.17%     74.64% # Bytes accessed per row activation (Byte)
system.mem_ctrls.dram.bytesPerActivate::512-639         5458      3.79%     78.43% # Bytes accessed per row activation (Byte)
system.mem_ctrls.dram.bytesPerActivate::640-767         4538      3.16%     81.59% # Bytes accessed per row activation (Byte)
system.mem_ctrls.dram.bytesPerActivate::768-895         3863      2.69%     84.27% # Bytes accessed per row activation (Byte)
system.mem_ctrls.dram.bytesPerActivate::896-1023         4954      3.44%     87.72% # Bytes accessed per row activation (Byte)
system.mem_ctrls.dram.bytesPerActivate::1024-1151        17663     12.28%    100.00% # Bytes accessed per row activation (Byte)
system.mem_ctrls.dram.bytesPerActivate::total       143823                       # Bytes accessed per row activation (Byte)
system.mem_ctrls.dram.bytesRead              34302144                       # Total bytes read (Byte)
system.mem_ctrls.dram.bytesWritten           13925440                       # Total bytes written (Byte)
system.mem_ctrls.dram.avgRdBW              562.562614                       # Average DRAM read bandwidth in MiBytes/s ((Byte/Second))
system.mem_ctrls.dram.avgWrBW              228.380241                       # Average DRAM write bandwidth in MiBytes/s ((Byte/Second))
system.mem_ctrls.dram.peakBW                 12800.00                       # Theoretical peak bandwidth in MiByte/s ((Byte/Second))
system.mem_ctrls.dram.busUtil                    6.18                       # Data bus utilization in percentage (Ratio)
system.mem_ctrls.dram.busUtilRead                4.40                       # Data bus utilization in percentage for reads (Ratio)
system.mem_ctrls.dram.busUtilWrite               1.78                       # Data bus utilization in percentage for writes (Ratio)
system.mem_ctrls.dram.pageHitRate               80.91                       # Row buffer hit rate, read and write combined (Ratio)
system.mem_ctrls.dram.power_state.pwrStateResidencyTicks::UNDEFINED  60974802000                       # Cumulative time (in ticks) in various power states (Tick)
system.mem_ctrls.dram.rank0.actEnergy       753291420                       # Energy for activate commands per rank (pJ) (Joule)
system.mem_ctrls.dram.rank0.preEnergy       400376295                       # Energy for precharge commands per rank (pJ) (Joule)
system.mem_ctrls.dram.rank0.readEnergy     1588507200                       # Energy for read commands per rank (pJ) (Joule)
system.mem_ctrls.dram.rank0.writeEnergy     793346040                       # Energy for write commands per rank (pJ) (Joule)
system.mem_ctrls.dram.rank0.refreshEnergy 4813245840.000001                       # Energy for refresh commands per rank (pJ) (Joule)
system.mem_ctrls.dram.rank0.actBackEnergy  20652985560                       # Energy for active background per rank (pJ) (Joule)
system.mem_ctrls.dram.rank0.preBackEnergy   6022336320                       # Energy for precharge background per rank (pJ) (Joule)
system.mem_ctrls.dram.rank0.actPowerDownEnergy            0                       # Energy for active power-down per rank (pJ) (Joule)
system.mem_ctrls.dram.rank0.prePowerDownEnergy            0                       # Energy for precharge power-down per rank (pJ) (Joule)
system.mem_ctrls.dram.rank0.selfRefreshEnergy            0                       # Energy for self refresh per rank (pJ) (Joule)
system.mem_ctrls.dram.rank0.totalEnergy   35024088675                       # Total energy per rank (pJ) (Joule)
system.mem_ctrls.dram.rank0.averagePower   574.402663                       # Core power per rank (mW) (Watt)
system.mem_ctrls.dram.rank0.totalIdleTime            0                       # Total Idle time Per DRAM Rank (Tick)
system.mem_ctrls.dram.rank0.pwrStateTime::IDLE  15478764000                       # Time in different power states (Tick)
system.mem_ctrls.dram.rank0.pwrStateTime::REF   2036060000                       # Time in different power states (Tick)
system.mem_ctrls.dram.rank0.pwrStateTime::SREF            0                       # Time in different power states (Tick)
system.mem_ctrls.dram.rank0.pwrStateTime::PRE_PDN            0                       # Time in different power states (Tick)
system.mem_ctrls.dram.rank0.pwrStateTime::ACT  43459978000                       # Time in different power states (Tick)
system.mem_ctrls.dram.rank0.pwrStateTime::ACT_PDN            0                       # Time in different power states (Tick)
system.mem_ctrls.dram.rank1.actEnergy       273633360                       # Energy for activate commands per rank (pJ) (Joule)
system.mem_ctrls.dram.rank1.preEnergy       145431990                       # Energy for precharge commands per rank (pJ) (Joule)
system.mem_ctrls.dram.rank1.readEnergy     2238325740                       # Energy for read commands per rank (pJ) (Joule)
system.mem_ctrls.dram.rank1.writeEnergy     342447660                       # Energy for write commands per rank (pJ) (Joule)
system.mem_ctrls.dram.rank1.refreshEnergy 4813245840.000001                       # Energy for refresh commands per rank (pJ) (Joule)
system.mem_ctrls.dram.rank1.actBackEnergy  23220507240                       # Energy for active background per rank (pJ) (Joule)
system.mem_ctrls.dram.rank1.preBackEnergy   3860212800                       # Energy for precharge background per rank (pJ) (Joule)
system.mem_ctrls.dram.rank1.actPowerDownEnergy            0                       # Energy for active power-down per rank (pJ) (Joule)
system.mem_ctrls.dram.rank1.prePowerDownEnergy            0                       # Energy for precharge power-down per rank (pJ) (Joule)
system.mem_ctrls.dram.rank1.selfRefreshEnergy            0                       # Energy for self refresh per rank (pJ) (Joule)
system.mem_ctrls.dram.rank1.totalEnergy   34893804630                       # Total energy per rank (pJ) (Joule)
system.mem_ctrls.dram.rank1.averagePower   572.265977                       # Core power per rank (mW) (Watt)
system.mem_ctrls.dram.rank1.totalIdleTime            0                       # Total Idle time Per DRAM Rank (Tick)
system.mem_ctrls.dram.rank1.pwrStateTime::IDLE   9832782000                       # Time in different power states (Tick)
system.mem_ctrls.dram.rank1.pwrStateTime::REF   2036060000                       # Time in different power states (Tick)
system.mem_ctrls.dram.rank1.pwrStateTime::SREF            0                       # Time in different power states (Tick)
system.mem_ctrls.dram.rank1.pwrStateTime::PRE_PDN            0                       # Time in different power states (Tick)
system.mem_ctrls.dram.rank1.pwrStateTime::ACT  49105960000                       # Time in different power states (Tick)
system.mem_ctrls.dram.rank1.pwrStateTime::ACT_PDN            0                       # Time in different power states (Tick)
system.mem_ctrls.power_state.pwrStateResidencyTicks::UNDEFINED  60974802000                       # Cumulative time (in ticks) in various power states (Tick)
system.membus.transDist::ReadResp              618360                       # Transaction distribution (Count)
system.membus.transDist::WritebackDirty        113282                       # Transaction distribution (Count)
system.membus.transDist::WritebackClean        147808                       # Transaction distribution (Count)
system.membus.transDist::CleanEvict            431190                       # Transaction distribution (Count)
system.membus.transDist::ReadExReq              74431                       # Transaction distribution (Count)
system.membus.transDist::ReadExResp             74431                       # Transaction distribution (Count)
system.membus.transDist::ReadCleanReq          148255                       # Transaction distribution (Count)
system.membus.transDist::ReadSharedReq         470105                       # Transaction distribution (Count)
system.membus.pktCount_system.cpu.icache.mem_side_port::system.mem_ctrls.port       444318                       # Packet count per connected requestor and responder (Count)
system.membus.pktCount_system.cpu.dcache.mem_side_port::system.mem_ctrls.port      1633544                       # Packet count per connected requestor and responder (Count)
system.membus.pktCount::total                 2077862                       # Packet count per connected requestor and responder (Count)
system.membus.pktSize_system.cpu.icache.mem_side_port::system.mem_ctrls.port     18948032                       # Cumulative packet size per connected requestor and responder (Byte)
system.membus.pktSize_system.cpu.dcache.mem_side_port::system.mem_ctrls.port     42100352                       # Cumulative packet size per connected requestor and responder (Byte)
system.membus.pktSize::total                 61048384                       # Cumulative packet size per connected requestor and responder (Byte)
system.membus.snoops                                0                       # Total snoops (Count)
system.membus.snoopTraffic                          0                       # Total snoop traffic (Byte)
system.membus.snoopFanout::samples             692791                       # Request fanout histogram (Count)
system.membus.snoopFanout::mean              0.000001                       # Request fanout histogram (Count)
system.membus.snoopFanout::stdev             0.001201                       # Request fanout histogram (Count)
system.membus.snoopFanout::underflows               0      0.00%      0.00% # Request fanout histogram (Count)
system.membus.snoopFanout::0                   692790    100.00%    100.00% # Request fanout histogram (Count)
system.membus.snoopFanout::1                        1      0.00%    100.00% # Request fanout histogram (Count)
system.membus.snoopFanout::2                        0      0.00%    100.00% # Request fanout histogram (Count)
system.membus.snoopFanout::3                        0      0.00%    100.00% # Request fanout histogram (Count)
system.membus.snoopFanout::4                        0      0.00%    100.00% # Request fanout histogram (Count)
system.membus.snoopFanout::overflows                0      0.00%    100.00% # Request fanout histogram (Count)
system.membus.snoopFanout::min_value                0                       # Request fanout histogram (Count)
system.membus.snoopFanout::max_value                1                       # Request fanout histogram (Count)
system.membus.snoopFanout::total               692791                       # Request fanout histogram (Count)
system.membus.power_state.pwrStateResidencyTicks::UNDEFINED  60974802000                       # Cumulative time (in ticks) in various power states (Tick)
system.membus.reqLayer0.occupancy          2645436000                       # Layer occupancy (ticks) (Tick)
system.membus.reqLayer0.utilization               0.0                       # Layer utilization (Ratio)
system.membus.respLayer1.occupancy          765090500                       # Layer occupancy (ticks) (Tick)
system.membus.respLayer1.utilization              0.0                       # Layer utilization (Ratio)
system.membus.respLayer2.occupancy         2875275000                       # Layer occupancy (ticks) (Tick)
system.membus.respLayer2.utilization              0.0                       # Layer utilization (Ratio)
system.membus.snoop_filter.totRequests        1385071                       # Total number of requests made to the snoop filter. (Count)
system.membus.snoop_filter.hitSingleRequests       692281                       # Number of requests hitting in the snoop filter with a single holder of the requested data. (Count)
system.membus.snoop_filter.hitMultiRequests            0                       # Number of requests hitting in the snoop filter with multiple (>1) holders of the requested data. (Count)
system.membus.snoop_filter.totSnoops                0                       # Total number of snoops made to the snoop filter. (Count)
system.membus.snoop_filter.hitSingleSnoops            0                       # Number of snoops hitting in the snoop filter with a single holder of the requested data. (Count)
system.membus.snoop_filter.hitMultiSnoops            0                       # Number of snoops hitting in the snoop filter with multiple (>1) holders of the requested data. (Count)
system.voltage_domain.voltage                       1                       # Voltage in Volts (Volt)
system.workload.inst.arm                            0                       # number of arm instructions executed (Count)
system.workload.inst.quiesce                        0                       # number of quiesce instructions executed (Count)
system.cpu.idleCycles                        60124204                       # Total number of cycles that the object has spent stopped (Unspecified)
system.cpu.tickCycles                        61825400                       # Number of cycles that the object actually ticked (Unspecified)

---------- End Simulation Statistics   ----------
