
---------- Begin Simulation Statistics ----------
simSeconds                                   0.026631                       # Number of seconds simulated (Second)
simTicks                                  26630919500                       # Number of ticks simulated (Tick)
finalTick                                 26630919500                       # Number of ticks from beginning of simulation (restored from checkpoints and never reset) (Tick)
simFreq                                  1000000000000                       # The number of ticks per simulated second ((Tick/Second))
hostSeconds                                    101.56                       # Real time elapsed on the host (Second)
hostTickRate                                262223849                       # The number of ticks simulated per host second (ticks/s) ((Tick/Second))
hostMemory                                     665908                       # Number of bytes of host memory used (Byte)
simInsts                                     41289468                       # Number of instructions simulated (Count)
simOps                                       78315814                       # Number of ops (including micro ops) simulated (Count)
hostInstRate                                   406560                       # Simulator instruction rate (inst/s) ((Count/Second))
hostOpRate                                     771144                       # Simulator op (including micro ops) rate (op/s) ((Count/Second))
system.clk_domain.clock                          1000                       # Clock period in ticks (Tick)
system.cpu.numCycles                         53261840                       # Number of cpu cycles simulated (Cycle)
system.cpu.numWorkItemsStarted                      0                       # Number of work items this cpu started (Count)
system.cpu.numWorkItemsCompleted                    0                       # Number of work items this cpu completed (Count)
system.cpu.instsAdded                        83255703                       # Number of instructions added to the IQ (excludes non-spec) (Count)
system.cpu.nonSpecInstsAdded                       59                       # Number of non-speculative instructions added to the IQ (Count)
system.cpu.instsIssued                       81615631                       # Number of instructions issued (Count)
system.cpu.squashedInstsIssued                  60645                       # Number of squashed instructions issued (Count)
system.cpu.squashedInstsExamined              4939942                       # Number of squashed instructions iterated over during squash; mainly for profiling (Count)
system.cpu.squashedOperandsExamined           7495173                       # Number of squashed operands that are examined and possibly removed from graph (Count)
system.cpu.squashedNonSpecRemoved                  41                       # Number of squashed non-spec instructions that were removed (Count)
system.cpu.numIssuedDist::samples            52515540                       # Number of insts issued each cycle (Count)
system.cpu.numIssuedDist::mean               1.554123                       # Number of insts issued each cycle (Count)
system.cpu.numIssuedDist::stdev              2.140839                       # Number of insts issued each cycle (Count)
system.cpu.numIssuedDist::underflows                0      0.00%      0.00% # Number of insts issued each cycle (Count)
system.cpu.numIssuedDist::0                  28019746     53.36%     53.36% # Number of insts issued each cycle (Count)
system.cpu.numIssuedDist::1                   5092345      9.70%     63.05% # Number of insts issued each cycle (Count)
system.cpu.numIssuedDist::2                   5589827     10.64%     73.70% # Number of insts issued each cycle (Count)
system.cpu.numIssuedDist::3                   3774872      7.19%     80.88% # Number of insts issued each cycle (Count)
system.cpu.numIssuedDist::4                   3147703      5.99%     86.88% # Number of insts issued each cycle (Count)
system.cpu.numIssuedDist::5                   2575983      4.91%     91.78% # Number of insts issued each cycle (Count)
system.cpu.numIssuedDist::6                   2380281      4.53%     96.32% # Number of insts issued each cycle (Count)
system.cpu.numIssuedDist::7                   1211661      2.31%     98.62% # Number of insts issued each cycle (Count)
system.cpu.numIssuedDist::8                    723122      1.38%    100.00% # Number of insts issued each cycle (Count)
system.cpu.numIssuedDist::overflows                 0      0.00%    100.00% # Number of insts issued each cycle (Count)
system.cpu.numIssuedDist::min_value                 0                       # Number of insts issued each cycle (Count)
system.cpu.numIssuedDist::max_value                 8                       # Number of insts issued each cycle (Count)
system.cpu.numIssuedDist::total              52515540                       # Number of insts issued each cycle (Count)
system.cpu.statFuBusy::No_OpClass                   0      0.00%      0.00% # attempts to use FU when none available (Count)
system.cpu.statFuBusy::IntAlu                 1114781     82.83%     82.83% # attempts to use FU when none available (Count)
system.cpu.statFuBusy::IntMult                      0      0.00%     82.83% # attempts to use FU when none available (Count)
system.cpu.statFuBusy::IntDiv                       0      0.00%     82.83% # attempts to use FU when none available (Count)
system.cpu.statFuBusy::FloatAdd                     0      0.00%     82.83% # attempts to use FU when none available (Count)
system.cpu.statFuBusy::FloatCmp                     0      0.00%     82.83% # attempts to use FU when none available (Count)
system.cpu.statFuBusy::FloatCvt                     0      0.00%     82.83% # attempts to use FU when none available (Count)
system.cpu.statFuBusy::FloatMult                    0      0.00%     82.83% # attempts to use FU when none available (Count)
system.cpu.statFuBusy::FloatMultAcc                 0      0.00%     82.83% # attempts to use FU when none available (Count)
system.cpu.statFuBusy::FloatDiv                     0      0.00%     82.83% # attempts to use FU when none available (Count)
system.cpu.statFuBusy::FloatMisc                    0      0.00%     82.83% # attempts to use FU when none available (Count)
system.cpu.statFuBusy::FloatSqrt                    0      0.00%     82.83% # attempts to use FU when none available (Count)
system.cpu.statFuBusy::SimdAdd                      0      0.00%     82.83% # attempts to use FU when none available (Count)
system.cpu.statFuBusy::SimdAddAcc                   0      0.00%     82.83% # attempts to use FU when none available (Count)
system.cpu.statFuBusy::SimdAlu                  18082      1.34%     84.17% # attempts to use FU when none available (Count)
system.cpu.statFuBusy::SimdCmp                      0      0.00%     84.17% # attempts to use FU when none available (Count)
system.cpu.statFuBusy::SimdCvt                    145      0.01%     84.18% # attempts to use FU when none available (Count)
system.cpu.statFuBusy::SimdMisc                  7239      0.54%     84.72% # attempts to use FU when none available (Count)
system.cpu.statFuBusy::SimdMult                     0      0.00%     84.72% # attempts to use FU when none available (Count)
system.cpu.statFuBusy::SimdMultAcc                  0      0.00%     84.72% # attempts to use FU when none available (Count)
system.cpu.statFuBusy::SimdShift                    0      0.00%     84.72% # attempts to use FU when none available (Count)
system.cpu.statFuBusy::SimdShiftAcc                 0      0.00%     84.72% # attempts to use FU when none available (Count)
system.cpu.statFuBusy::SimdDiv                      0      0.00%     84.72% # attempts to use FU when none available (Count)
system.cpu.statFuBusy::SimdSqrt                     0      0.00%     84.72% # attempts to use FU when none available (Count)
system.cpu.statFuBusy::SimdFloatAdd                 0      0.00%     84.72% # attempts to use FU when none available (Count)
system.cpu.statFuBusy::SimdFloatAlu                 0      0.00%     84.72% # attempts to use FU when none available (Count)
system.cpu.statFuBusy::SimdFloatCmp                 0      0.00%     84.72% # attempts to use FU when none available (Count)
system.cpu.statFuBusy::SimdFloatCvt                 0      0.00%     84.72% # attempts to use FU when none available (Count)
system.cpu.statFuBusy::SimdFloatDiv                 0      0.00%     84.72% # attempts to use FU when none available (Count)
system.cpu.statFuBusy::SimdFloatMisc                0      0.00%     84.72% # attempts to use FU when none available (Count)
system.cpu.statFuBusy::SimdFloatMult                0      0.00%     84.72% # attempts to use FU when none available (Count)
system.cpu.statFuBusy::SimdFloatMultAcc             0      0.00%     84.72% # attempts to use FU when none available (Count)
system.cpu.statFuBusy::SimdFloatSqrt                0      0.00%     84.72% # attempts to use FU when none available (Count)
system.cpu.statFuBusy::SimdReduceAdd                0      0.00%     84.72% # attempts to use FU when none available (Count)
system.cpu.statFuBusy::SimdReduceAlu                0      0.00%     84.72% # attempts to use FU when none available (Count)
system.cpu.statFuBusy::SimdReduceCmp                0      0.00%     84.72% # attempts to use FU when none available (Count)
system.cpu.statFuBusy::SimdFloatReduceAdd            0      0.00%     84.72% # attempts to use FU when none available (Count)
system.cpu.statFuBusy::SimdFloatReduceCmp            0      0.00%     84.72% # attempts to use FU when none available (Count)
system.cpu.statFuBusy::SimdAes                      0      0.00%     84.72% # attempts to use FU when none available (Count)
system.cpu.statFuBusy::SimdAesMix                   0      0.00%     84.72% # attempts to use FU when none available (Count)
system.cpu.statFuBusy::SimdSha1Hash                 0      0.00%     84.72% # attempts to use FU when none available (Count)
system.cpu.statFuBusy::SimdSha1Hash2                0      0.00%     84.72% # attempts to use FU when none available (Count)
system.cpu.statFuBusy::SimdSha256Hash               0      0.00%     84.72% # attempts to use FU when none available (Count)
system.cpu.statFuBusy::SimdSha256Hash2              0      0.00%     84.72% # attempts to use FU when none available (Count)
system.cpu.statFuBusy::SimdShaSigma2                0      0.00%     84.72% # attempts to use FU when none available (Count)
system.cpu.statFuBusy::SimdShaSigma3                0      0.00%     84.72% # attempts to use FU when none available (Count)
system.cpu.statFuBusy::SimdPredAlu                  0      0.00%     84.72% # attempts to use FU when none available (Count)
system.cpu.statFuBusy::MemRead                 155648     11.56%     96.29% # attempts to use FU when none available (Count)
system.cpu.statFuBusy::MemWrite                 24972      1.86%     98.14% # attempts to use FU when none available (Count)
system.cpu.statFuBusy::FloatMemRead             12295      0.91%     99.06% # attempts to use FU when none available (Count)
system.cpu.statFuBusy::FloatMemWrite            12704      0.94%    100.00% # attempts to use FU when none available (Count)
system.cpu.statFuBusy::IprAccess                    0      0.00%    100.00% # attempts to use FU when none available (Count)
system.cpu.statFuBusy::InstPrefetch                 0      0.00%    100.00% # attempts to use FU when none available (Count)
system.cpu.statIssuedInstType_0::No_OpClass       879710      1.08%      1.08% # Number of instructions issued per FU type, per thread (Count)
system.cpu.statIssuedInstType_0::IntAlu      59672450     73.11%     74.19% # Number of instructions issued per FU type, per thread (Count)
system.cpu.statIssuedInstType_0::IntMult        89551      0.11%     74.30% # Number of instructions issued per FU type, per thread (Count)
system.cpu.statIssuedInstType_0::IntDiv        910438      1.12%     75.42% # Number of instructions issued per FU type, per thread (Count)
system.cpu.statIssuedInstType_0::FloatAdd       895386      1.10%     76.51% # Number of instructions issued per FU type, per thread (Count)
system.cpu.statIssuedInstType_0::FloatCmp            0      0.00%     76.51% # Number of instructions issued per FU type, per thread (Count)
system.cpu.statIssuedInstType_0::FloatCvt            0      0.00%     76.51% # Number of instructions issued per FU type, per thread (Count)
system.cpu.statIssuedInstType_0::FloatMult            0      0.00%     76.51% # Number of instructions issued per FU type, per thread (Count)
system.cpu.statIssuedInstType_0::FloatMultAcc            0      0.00%     76.51% # Number of instructions issued per FU type, per thread (Count)
system.cpu.statIssuedInstType_0::FloatDiv            0      0.00%     76.51% # Number of instructions issued per FU type, per thread (Count)
system.cpu.statIssuedInstType_0::FloatMisc            0      0.00%     76.51% # Number of instructions issued per FU type, per thread (Count)
system.cpu.statIssuedInstType_0::FloatSqrt            0      0.00%     76.51% # Number of instructions issued per FU type, per thread (Count)
system.cpu.statIssuedInstType_0::SimdAdd            2      0.00%     76.51% # Number of instructions issued per FU type, per thread (Count)
system.cpu.statIssuedInstType_0::SimdAddAcc            0      0.00%     76.51% # Number of instructions issued per FU type, per thread (Count)
system.cpu.statIssuedInstType_0::SimdAlu       288827      0.35%     76.87% # Number of instructions issued per FU type, per thread (Count)
system.cpu.statIssuedInstType_0::SimdCmp          336      0.00%     76.87% # Number of instructions issued per FU type, per thread (Count)
system.cpu.statIssuedInstType_0::SimdCvt       164697      0.20%     77.07% # Number of instructions issued per FU type, per thread (Count)
system.cpu.statIssuedInstType_0::SimdMisc       259025      0.32%     77.39% # Number of instructions issued per FU type, per thread (Count)
system.cpu.statIssuedInstType_0::SimdMult            0      0.00%     77.39% # Number of instructions issued per FU type, per thread (Count)
system.cpu.statIssuedInstType_0::SimdMultAcc            0      0.00%     77.39% # Number of instructions issued per FU type, per thread (Count)
system.cpu.statIssuedInstType_0::SimdShift            0      0.00%     77.39% # Number of instructions issued per FU type, per thread (Count)
system.cpu.statIssuedInstType_0::SimdShiftAcc            0      0.00%     77.39% # Number of instructions issued per FU type, per thread (Count)
system.cpu.statIssuedInstType_0::SimdDiv            0      0.00%     77.39% # Number of instructions issued per FU type, per thread (Count)
system.cpu.statIssuedInstType_0::SimdSqrt            0      0.00%     77.39% # Number of instructions issued per FU type, per thread (Count)
system.cpu.statIssuedInstType_0::SimdFloatAdd       278540      0.34%     77.73% # Number of instructions issued per FU type, per thread (Count)
system.cpu.statIssuedInstType_0::SimdFloatAlu            0      0.00%     77.73% # Number of instructions issued per FU type, per thread (Count)
system.cpu.statIssuedInstType_0::SimdFloatCmp            0      0.00%     77.73% # Number of instructions issued per FU type, per thread (Count)
system.cpu.statIssuedInstType_0::SimdFloatCvt        16402      0.02%     77.75% # Number of instructions issued per FU type, per thread (Count)
system.cpu.statIssuedInstType_0::SimdFloatDiv            0      0.00%     77.75% # Number of instructions issued per FU type, per thread (Count)
system.cpu.statIssuedInstType_0::SimdFloatMisc            0      0.00%     77.75% # Number of instructions issued per FU type, per thread (Count)
system.cpu.statIssuedInstType_0::SimdFloatMult       262144      0.32%     78.07% # Number of instructions issued per FU type, per thread (Count)
system.cpu.statIssuedInstType_0::SimdFloatMultAcc            0      0.00%     78.07% # Number of instructions issued per FU type, per thread (Count)
system.cpu.statIssuedInstType_0::SimdFloatSqrt            0      0.00%     78.07% # Number of instructions issued per FU type, per thread (Count)
system.cpu.statIssuedInstType_0::SimdReduceAdd            0      0.00%     78.07% # Number of instructions issued per FU type, per thread (Count)
system.cpu.statIssuedInstType_0::SimdReduceAlu            0      0.00%     78.07% # Number of instructions issued per FU type, per thread (Count)
system.cpu.statIssuedInstType_0::SimdReduceCmp            0      0.00%     78.07% # Number of instructions issued per FU type, per thread (Count)
system.cpu.statIssuedInstType_0::SimdFloatReduceAdd            0      0.00%     78.07% # Number of instructions issued per FU type, per thread (Count)
system.cpu.statIssuedInstType_0::SimdFloatReduceCmp            0      0.00%     78.07% # Number of instructions issued per FU type, per thread (Count)
system.cpu.statIssuedInstType_0::SimdAes            0      0.00%     78.07% # Number of instructions issued per FU type, per thread (Count)
system.cpu.statIssuedInstType_0::SimdAesMix            0      0.00%     78.07% # Number of instructions issued per FU type, per thread (Count)
system.cpu.statIssuedInstType_0::SimdSha1Hash            0      0.00%     78.07% # Number of instructions issued per FU type, per thread (Count)
system.cpu.statIssuedInstType_0::SimdSha1Hash2            0      0.00%     78.07% # Number of instructions issued per FU type, per thread (Count)
system.cpu.statIssuedInstType_0::SimdSha256Hash            0      0.00%     78.07% # Number of instructions issued per FU type, per thread (Count)
system.cpu.statIssuedInstType_0::SimdSha256Hash2            0      0.00%     78.07% # Number of instructions issued per FU type, per thread (Count)
system.cpu.statIssuedInstType_0::SimdShaSigma2            0      0.00%     78.07% # Number of instructions issued per FU type, per thread (Count)
system.cpu.statIssuedInstType_0::SimdShaSigma3            0      0.00%     78.07% # Number of instructions issued per FU type, per thread (Count)
system.cpu.statIssuedInstType_0::SimdPredAlu            0      0.00%     78.07% # Number of instructions issued per FU type, per thread (Count)
system.cpu.statIssuedInstType_0::MemRead     10273532     12.59%     90.66% # Number of instructions issued per FU type, per thread (Count)
system.cpu.statIssuedInstType_0::MemWrite      5505863      6.75%     97.40% # Number of instructions issued per FU type, per thread (Count)
system.cpu.statIssuedInstType_0::FloatMemRead      1362047      1.67%     99.07% # Number of instructions issued per FU type, per thread (Count)
system.cpu.statIssuedInstType_0::FloatMemWrite       756681      0.93%    100.00% # Number of instructions issued per FU type, per thread (Count)
system.cpu.statIssuedInstType_0::IprAccess            0      0.00%    100.00% # Number of instructions issued per FU type, per thread (Count)
system.cpu.statIssuedInstType_0::InstPrefetch            0      0.00%    100.00% # Number of instructions issued per FU type, per thread (Count)
system.cpu.statIssuedInstType_0::total       81615631                       # Number of instructions issued per FU type, per thread (Count)
system.cpu.issueRate                         1.532347                       # Inst issue rate ((Count/Cycle))
system.cpu.fuBusy                             1345866                       # FU busy when requested (Count)
system.cpu.fuBusyRate                        0.016490                       # FU busy rate (busy events/executed inst) ((Count/Count))
system.cpu.intInstQueueReads                208450538                       # Number of integer instruction queue reads (Count)
system.cpu.intInstQueueWrites                83685780                       # Number of integer instruction queue writes (Count)
system.cpu.intInstQueueWakeupAccesses        76815110                       # Number of integer instruction queue wakeup accesses (Count)
system.cpu.fpInstQueueReads                   8702775                       # Number of floating instruction queue reads (Count)
system.cpu.fpInstQueueWrites                  4516580                       # Number of floating instruction queue writes (Count)
system.cpu.fpInstQueueWakeupAccesses          4300976                       # Number of floating instruction queue wakeup accesses (Count)
system.cpu.vecInstQueueReads                        0                       # Number of vector instruction queue reads (Count)
system.cpu.vecInstQueueWrites                       0                       # Number of vector instruction queue writes (Count)
system.cpu.vecInstQueueWakeupAccesses               0                       # Number of vector instruction queue wakeup accesses (Count)
system.cpu.intAluAccesses                    77706039                       # Number of integer alu accesses (Count)
system.cpu.fpAluAccesses                      4375748                       # Number of floating point alu accesses (Count)
system.cpu.vecAluAccesses                           0                       # Number of vector alu accesses (Count)
system.cpu.numInsts                          81302260                       # Number of executed instructions (Count)
system.cpu.numLoadInsts                      11600729                       # Number of load instructions executed (Count)
system.cpu.numSquashedInsts                    313371                       # Number of squashed instructions skipped in execute (Count)
system.cpu.numSwp                                   0                       # Number of swp insts executed (Count)
system.cpu.numNop                                   0                       # Number of nop insts executed (Count)
system.cpu.numRefs                           17824146                       # Number of memory reference insts executed (Count)
system.cpu.numBranches                        8662649                       # Number of branches executed (Count)
system.cpu.numStoreInsts                      6223417                       # Number of stores executed (Count)
system.cpu.numRate                           1.526464                       # Inst execution rate ((Count/Cycle))
system.cpu.timesIdled                           28226                       # Number of times that the entire CPU went into an idle state and unscheduled itself (Count)
system.cpu.idleCycles                          746300                       # Total number of cycles that the CPU has spent unscheduled due to idling (Cycle)
system.cpu.committedInsts                    41289468                       # Number of Instructions Simulated (Count)
system.cpu.committedOps                      78315814                       # Number of Ops (including micro ops) Simulated (Count)
system.cpu.cpi                               1.289962                       # CPI: Cycles Per Instruction ((Cycle/Count))
system.cpu.totalCpi                          1.289962                       # CPI: Total CPI of All Threads ((Cycle/Count))
system.cpu.ipc                               0.775217                       # IPC: Instructions Per Cycle ((Count/Cycle))
system.cpu.totalIpc                          0.775217                       # IPC: Total IPC of All Threads ((Count/Cycle))
system.cpu.intRegfileReads                  125608748                       # Number of integer regfile reads (Count)
system.cpu.intRegfileWrites                  63887123                       # Number of integer regfile writes (Count)
system.cpu.fpRegfileReads                     3891081                       # Number of floating regfile reads (Count)
system.cpu.fpRegfileWrites                    3356027                       # Number of floating regfile writes (Count)
system.cpu.ccRegfileReads                    44215922                       # number of cc regfile reads (Count)
system.cpu.ccRegfileWrites                   26411440                       # number of cc regfile writes (Count)
system.cpu.miscRegfileReads                  32906877                       # number of misc regfile reads (Count)
system.cpu.MemDepUnit__0.insertedLoads       11667687                       # Number of loads inserted to the mem dependence unit. (Count)
system.cpu.MemDepUnit__0.insertedStores       6475902                       # Number of stores inserted to the mem dependence unit. (Count)
system.cpu.MemDepUnit__0.conflictingLoads      2221597                       # Number of conflicting loads. (Count)
system.cpu.MemDepUnit__0.conflictingStores      1412035                       # Number of conflicting stores. (Count)
system.cpu.MemDepUnit__1.insertedLoads              0                       # Number of loads inserted to the mem dependence unit. (Count)
system.cpu.MemDepUnit__1.insertedStores             0                       # Number of stores inserted to the mem dependence unit. (Count)
system.cpu.MemDepUnit__1.conflictingLoads            0                       # Number of conflicting loads. (Count)
system.cpu.MemDepUnit__1.conflictingStores            0                       # Number of conflicting stores. (Count)
system.cpu.MemDepUnit__2.insertedLoads              0                       # Number of loads inserted to the mem dependence unit. (Count)
system.cpu.MemDepUnit__2.insertedStores             0                       # Number of stores inserted to the mem dependence unit. (Count)
system.cpu.MemDepUnit__2.conflictingLoads            0                       # Number of conflicting loads. (Count)
system.cpu.MemDepUnit__2.conflictingStores            0                       # Number of conflicting stores. (Count)
system.cpu.MemDepUnit__3.insertedLoads              0                       # Number of loads inserted to the mem dependence unit. (Count)
system.cpu.MemDepUnit__3.insertedStores             0                       # Number of stores inserted to the mem dependence unit. (Count)
system.cpu.MemDepUnit__3.conflictingLoads            0                       # Number of conflicting loads. (Count)
system.cpu.MemDepUnit__3.conflictingStores            0                       # Number of conflicting stores. (Count)
system.cpu.branchPred.lookups                 9588103                       # Number of BP lookups (Count)
system.cpu.branchPred.condPredicted           7707474                       # Number of conditional branches predicted (Count)
system.cpu.branchPred.condIncorrect            161950                       # Number of conditional branches incorrect (Count)
system.cpu.branchPred.BTBLookups              5547281                       # Number of BTB lookups (Count)
system.cpu.branchPred.BTBHits                 5489818                       # Number of BTB hits (Count)
system.cpu.branchPred.BTBHitRatio            0.989641                       # BTB Hit Ratio (Ratio)
system.cpu.branchPred.RASUsed                  534690                       # Number of times the RAS was used to get a target. (Count)
system.cpu.branchPred.RASIncorrect                  3                       # Number of incorrect RAS predictions. (Count)
system.cpu.branchPred.indirectLookups          115014                       # Number of indirect predictor lookups. (Count)
system.cpu.branchPred.indirectHits             113818                       # Number of indirect target hits. (Count)
system.cpu.branchPred.indirectMisses             1196                       # Number of indirect misses. (Count)
system.cpu.branchPred.indirectMispredicted          189                       # Number of mispredicted indirect branches. (Count)
system.cpu.commit.commitSquashedInsts         4714994                       # The number of squashed insts skipped by commit (Count)
system.cpu.commit.commitNonSpecStalls              18                       # The number of times commit has been forced to stall to communicate backwards (Count)
system.cpu.commit.branchMispredicts            149292                       # The number of times a branch was mispredicted (Count)
system.cpu.commit.numCommittedDist::samples     51832870                       # Number of insts commited each cycle (Count)
system.cpu.commit.numCommittedDist::mean     1.510930                       # Number of insts commited each cycle (Count)
system.cpu.commit.numCommittedDist::stdev     2.687306                       # Number of insts commited each cycle (Count)
system.cpu.commit.numCommittedDist::underflows            0      0.00%      0.00% # Number of insts commited each cycle (Count)
system.cpu.commit.numCommittedDist::0        34378056     66.32%     66.32% # Number of insts commited each cycle (Count)
system.cpu.commit.numCommittedDist::1         3372898      6.51%     72.83% # Number of insts commited each cycle (Count)
system.cpu.commit.numCommittedDist::2         2785069      5.37%     78.21% # Number of insts commited each cycle (Count)
system.cpu.commit.numCommittedDist::3         2673053      5.16%     83.36% # Number of insts commited each cycle (Count)
system.cpu.commit.numCommittedDist::4         1003536      1.94%     85.30% # Number of insts commited each cycle (Count)
system.cpu.commit.numCommittedDist::5          617515      1.19%     86.49% # Number of insts commited each cycle (Count)
system.cpu.commit.numCommittedDist::6          478286      0.92%     87.41% # Number of insts commited each cycle (Count)
system.cpu.commit.numCommittedDist::7          813472      1.57%     88.98% # Number of insts commited each cycle (Count)
system.cpu.commit.numCommittedDist::8         5710985     11.02%    100.00% # Number of insts commited each cycle (Count)
system.cpu.commit.numCommittedDist::overflows            0      0.00%    100.00% # Number of insts commited each cycle (Count)
system.cpu.commit.numCommittedDist::min_value            0                       # Number of insts commited each cycle (Count)
system.cpu.commit.numCommittedDist::max_value            8                       # Number of insts commited each cycle (Count)
system.cpu.commit.numCommittedDist::total     51832870                       # Number of insts commited each cycle (Count)
system.cpu.commit.instsCommitted             41289468                       # Number of instructions committed (Count)
system.cpu.commit.opsCommitted               78315814                       # Number of ops (including micro ops) committed (Count)
system.cpu.commit.memRefs                    17180900                       # Number of memory references committed (Count)
system.cpu.commit.loads                      11117876                       # Number of loads committed (Count)
system.cpu.commit.amos                              0                       # Number of atomic instructions committed (Count)
system.cpu.commit.membars                          12                       # Number of memory barriers committed (Count)
system.cpu.commit.branches                    8399625                       # Number of branches committed (Count)
system.cpu.commit.vectorInstructions                0                       # Number of committed Vector instructions. (Count)
system.cpu.commit.floating                    4284466                       # Number of committed floating point instructions. (Count)
system.cpu.commit.integer                    74436717                       # Number of committed integer instructions. (Count)
system.cpu.commit.functionCalls                491734                       # Number of function calls committed. (Count)
system.cpu.commit.committedInstType_0::No_OpClass       850890      1.09%      1.09% # Class of committed instruction (Count)
system.cpu.commit.committedInstType_0::IntAlu     57163185     72.99%     74.08% # Class of committed instruction (Count)
system.cpu.commit.committedInstType_0::IntMult        89549      0.11%     74.19% # Class of committed instruction (Count)
system.cpu.commit.committedInstType_0::IntDiv       882475      1.13%     75.32% # Class of committed instruction (Count)
system.cpu.commit.committedInstType_0::FloatAdd       880794      1.12%     76.44% # Class of committed instruction (Count)
system.cpu.commit.committedInstType_0::FloatCmp            0      0.00%     76.44% # Class of committed instruction (Count)
system.cpu.commit.committedInstType_0::FloatCvt            0      0.00%     76.44% # Class of committed instruction (Count)
system.cpu.commit.committedInstType_0::FloatMult            0      0.00%     76.44% # Class of committed instruction (Count)
system.cpu.commit.committedInstType_0::FloatMultAcc            0      0.00%     76.44% # Class of committed instruction (Count)
system.cpu.commit.committedInstType_0::FloatDiv            0      0.00%     76.44% # Class of committed instruction (Count)
system.cpu.commit.committedInstType_0::FloatMisc            0      0.00%     76.44% # Class of committed instruction (Count)
system.cpu.commit.committedInstType_0::FloatSqrt            0      0.00%     76.44% # Class of committed instruction (Count)
system.cpu.commit.committedInstType_0::SimdAdd            0      0.00%     76.44% # Class of committed instruction (Count)
system.cpu.commit.committedInstType_0::SimdAddAcc            0      0.00%     76.44% # Class of committed instruction (Count)
system.cpu.commit.committedInstType_0::SimdAlu       287296      0.37%     76.81% # Class of committed instruction (Count)
system.cpu.commit.committedInstType_0::SimdCmp          336      0.00%     76.81% # Class of committed instruction (Count)
system.cpu.commit.committedInstType_0::SimdCvt       164462      0.21%     77.02% # Class of committed instruction (Count)
system.cpu.commit.committedInstType_0::SimdMisc       258871      0.33%     77.35% # Class of committed instruction (Count)
system.cpu.commit.committedInstType_0::SimdMult            0      0.00%     77.35% # Class of committed instruction (Count)
system.cpu.commit.committedInstType_0::SimdMultAcc            0      0.00%     77.35% # Class of committed instruction (Count)
system.cpu.commit.committedInstType_0::SimdShift            0      0.00%     77.35% # Class of committed instruction (Count)
system.cpu.commit.committedInstType_0::SimdShiftAcc            0      0.00%     77.35% # Class of committed instruction (Count)
system.cpu.commit.committedInstType_0::SimdDiv            0      0.00%     77.35% # Class of committed instruction (Count)
system.cpu.commit.committedInstType_0::SimdSqrt            0      0.00%     77.35% # Class of committed instruction (Count)
system.cpu.commit.committedInstType_0::SimdFloatAdd       278528      0.36%     77.71% # Class of committed instruction (Count)
system.cpu.commit.committedInstType_0::SimdFloatAlu            0      0.00%     77.71% # Class of committed instruction (Count)
system.cpu.commit.committedInstType_0::SimdFloatCmp            0      0.00%     77.71% # Class of committed instruction (Count)
system.cpu.commit.committedInstType_0::SimdFloatCvt        16384      0.02%     77.73% # Class of committed instruction (Count)
system.cpu.commit.committedInstType_0::SimdFloatDiv            0      0.00%     77.73% # Class of committed instruction (Count)
system.cpu.commit.committedInstType_0::SimdFloatMisc            0      0.00%     77.73% # Class of committed instruction (Count)
system.cpu.commit.committedInstType_0::SimdFloatMult       262144      0.33%     78.06% # Class of committed instruction (Count)
system.cpu.commit.committedInstType_0::SimdFloatMultAcc            0      0.00%     78.06% # Class of committed instruction (Count)
system.cpu.commit.committedInstType_0::SimdFloatSqrt            0      0.00%     78.06% # Class of committed instruction (Count)
system.cpu.commit.committedInstType_0::SimdReduceAdd            0      0.00%     78.06% # Class of committed instruction (Count)
system.cpu.commit.committedInstType_0::SimdReduceAlu            0      0.00%     78.06% # Class of committed instruction (Count)
system.cpu.commit.committedInstType_0::SimdReduceCmp            0      0.00%     78.06% # Class of committed instruction (Count)
system.cpu.commit.committedInstType_0::SimdFloatReduceAdd            0      0.00%     78.06% # Class of committed instruction (Count)
system.cpu.commit.committedInstType_0::SimdFloatReduceCmp            0      0.00%     78.06% # Class of committed instruction (Count)
system.cpu.commit.committedInstType_0::SimdAes            0      0.00%     78.06% # Class of committed instruction (Count)
system.cpu.commit.committedInstType_0::SimdAesMix            0      0.00%     78.06% # Class of committed instruction (Count)
system.cpu.commit.committedInstType_0::SimdSha1Hash            0      0.00%     78.06% # Class of committed instruction (Count)
system.cpu.commit.committedInstType_0::SimdSha1Hash2            0      0.00%     78.06% # Class of committed instruction (Count)
system.cpu.commit.committedInstType_0::SimdSha256Hash            0      0.00%     78.06% # Class of committed instruction (Count)
system.cpu.commit.committedInstType_0::SimdSha256Hash2            0      0.00%     78.06% # Class of committed instruction (Count)
system.cpu.commit.committedInstType_0::SimdShaSigma2            0      0.00%     78.06% # Class of committed instruction (Count)
system.cpu.commit.committedInstType_0::SimdShaSigma3            0      0.00%     78.06% # Class of committed instruction (Count)
system.cpu.commit.committedInstType_0::SimdPredAlu            0      0.00%     78.06% # Class of committed instruction (Count)
system.cpu.commit.committedInstType_0::MemRead      9777520     12.48%     90.55% # Class of committed instruction (Count)
system.cpu.commit.committedInstType_0::MemWrite      5308845      6.78%     97.33% # Class of committed instruction (Count)
system.cpu.commit.committedInstType_0::FloatMemRead      1340356      1.71%     99.04% # Class of committed instruction (Count)
system.cpu.commit.committedInstType_0::FloatMemWrite       754179      0.96%    100.00% # Class of committed instruction (Count)
system.cpu.commit.committedInstType_0::IprAccess            0      0.00%    100.00% # Class of committed instruction (Count)
system.cpu.commit.committedInstType_0::InstPrefetch            0      0.00%    100.00% # Class of committed instruction (Count)
system.cpu.commit.committedInstType_0::total     78315814                       # Class of committed instruction (Count)
system.cpu.commit.commitEligibleSamples       5710985                       # number cycles where commit BW limit reached (Cycle)
system.cpu.dcache.demandHits::cpu.data       12934588                       # number of demand (read+write) hits (Count)
system.cpu.dcache.demandHits::total          12934588                       # number of demand (read+write) hits (Count)
system.cpu.dcache.overallHits::cpu.data      12934588                       # number of overall hits (Count)
system.cpu.dcache.overallHits::total         12934588                       # number of overall hits (Count)
system.cpu.dcache.demandMisses::cpu.data      1051137                       # number of demand (read+write) misses (Count)
system.cpu.dcache.demandMisses::total         1051137                       # number of demand (read+write) misses (Count)
system.cpu.dcache.overallMisses::cpu.data      1051137                       # number of overall misses (Count)
system.cpu.dcache.overallMisses::total        1051137                       # number of overall misses (Count)
system.cpu.dcache.demandMissLatency::cpu.data  50836626997                       # number of demand (read+write) miss ticks (Tick)
system.cpu.dcache.demandMissLatency::total  50836626997                       # number of demand (read+write) miss ticks (Tick)
system.cpu.dcache.overallMissLatency::cpu.data  50836626997                       # number of overall miss ticks (Tick)
system.cpu.dcache.overallMissLatency::total  50836626997                       # number of overall miss ticks (Tick)
system.cpu.dcache.demandAccesses::cpu.data     13985725                       # number of demand (read+write) accesses (Count)
system.cpu.dcache.demandAccesses::total      13985725                       # number of demand (read+write) accesses (Count)
system.cpu.dcache.overallAccesses::cpu.data     13985725                       # number of overall (read+write) accesses (Count)
system.cpu.dcache.overallAccesses::total     13985725                       # number of overall (read+write) accesses (Count)
system.cpu.dcache.demandMissRate::cpu.data     0.075158                       # miss rate for demand accesses (Ratio)
system.cpu.dcache.demandMissRate::total      0.075158                       # miss rate for demand accesses (Ratio)
system.cpu.dcache.overallMissRate::cpu.data     0.075158                       # miss rate for overall accesses (Ratio)
system.cpu.dcache.overallMissRate::total     0.075158                       # miss rate for overall accesses (Ratio)
system.cpu.dcache.demandAvgMissLatency::cpu.data 48363.464512                       # average overall miss latency ((Cycle/Count))
system.cpu.dcache.demandAvgMissLatency::total 48363.464512                       # average overall miss latency ((Cycle/Count))
system.cpu.dcache.overallAvgMissLatency::cpu.data 48363.464512                       # average overall miss latency ((Cycle/Count))
system.cpu.dcache.overallAvgMissLatency::total 48363.464512                       # average overall miss latency ((Cycle/Count))
system.cpu.dcache.blockedCycles::no_mshrs      1699280                       # number of cycles access was blocked (Cycle)
system.cpu.dcache.blockedCycles::no_targets            0                       # number of cycles access was blocked (Cycle)
system.cpu.dcache.blockedCauses::no_mshrs        44168                       # number of times access was blocked (Count)
system.cpu.dcache.blockedCauses::no_targets            0                       # number of times access was blocked (Count)
system.cpu.dcache.avgBlocked::no_mshrs      38.473103                       # average number of cycles each access was blocked ((Cycle/Count))
system.cpu.dcache.avgBlocked::no_targets          nan                       # average number of cycles each access was blocked ((Cycle/Count))
system.cpu.dcache.writebacks::writebacks       210487                       # number of writebacks (Count)
system.cpu.dcache.writebacks::total            210487                       # number of writebacks (Count)
system.cpu.dcache.demandMshrHits::cpu.data       309794                       # number of demand (read+write) MSHR hits (Count)
system.cpu.dcache.demandMshrHits::total        309794                       # number of demand (read+write) MSHR hits (Count)
system.cpu.dcache.overallMshrHits::cpu.data       309794                       # number of overall MSHR hits (Count)
system.cpu.dcache.overallMshrHits::total       309794                       # number of overall MSHR hits (Count)
system.cpu.dcache.demandMshrMisses::cpu.data       741343                       # number of demand (read+write) MSHR misses (Count)
system.cpu.dcache.demandMshrMisses::total       741343                       # number of demand (read+write) MSHR misses (Count)
system.cpu.dcache.overallMshrMisses::cpu.data       741343                       # number of overall MSHR misses (Count)
system.cpu.dcache.overallMshrMisses::total       741343                       # number of overall MSHR misses (Count)
system.cpu.dcache.demandMshrMissLatency::cpu.data  37371573497                       # number of demand (read+write) MSHR miss ticks (Tick)
system.cpu.dcache.demandMshrMissLatency::total  37371573497                       # number of demand (read+write) MSHR miss ticks (Tick)
system.cpu.dcache.overallMshrMissLatency::cpu.data  37371573497                       # number of overall MSHR miss ticks (Tick)
system.cpu.dcache.overallMshrMissLatency::total  37371573497                       # number of overall MSHR miss ticks (Tick)
system.cpu.dcache.demandMshrMissRate::cpu.data     0.053007                       # mshr miss ratio for demand accesses (Ratio)
system.cpu.dcache.demandMshrMissRate::total     0.053007                       # mshr miss ratio for demand accesses (Ratio)
system.cpu.dcache.overallMshrMissRate::cpu.data     0.053007                       # mshr miss ratio for overall accesses (Ratio)
system.cpu.dcache.overallMshrMissRate::total     0.053007                       # mshr miss ratio for overall accesses (Ratio)
system.cpu.dcache.demandAvgMshrMissLatency::cpu.data 50410.637852                       # average overall mshr miss latency ((Cycle/Count))
system.cpu.dcache.demandAvgMshrMissLatency::total 50410.637852                       # average overall mshr miss latency ((Cycle/Count))
system.cpu.dcache.overallAvgMshrMissLatency::cpu.data 50410.637852                       # average overall mshr miss latency ((Cycle/Count))
system.cpu.dcache.overallAvgMshrMissLatency::total 50410.637852                       # average overall mshr miss latency ((Cycle/Count))
system.cpu.dcache.replacements                 741311                       # number of replacements (Count)
system.cpu.dcache.ReadReq.hits::cpu.data      7005531                       # number of ReadReq hits (Count)
system.cpu.dcache.ReadReq.hits::total         7005531                       # number of ReadReq hits (Count)
system.cpu.dcache.ReadReq.misses::cpu.data       917169                       # number of ReadReq misses (Count)
system.cpu.dcache.ReadReq.misses::total        917169                       # number of ReadReq misses (Count)
system.cpu.dcache.ReadReq.missLatency::cpu.data  46929536500                       # number of ReadReq miss ticks (Tick)
system.cpu.dcache.ReadReq.missLatency::total  46929536500                       # number of ReadReq miss ticks (Tick)
system.cpu.dcache.ReadReq.accesses::cpu.data      7922700                       # number of ReadReq accesses(hits+misses) (Count)
system.cpu.dcache.ReadReq.accesses::total      7922700                       # number of ReadReq accesses(hits+misses) (Count)
system.cpu.dcache.ReadReq.missRate::cpu.data     0.115765                       # miss rate for ReadReq accesses (Ratio)
system.cpu.dcache.ReadReq.missRate::total     0.115765                       # miss rate for ReadReq accesses (Ratio)
system.cpu.dcache.ReadReq.avgMissLatency::cpu.data 51167.818036                       # average ReadReq miss latency ((Tick/Count))
system.cpu.dcache.ReadReq.avgMissLatency::total 51167.818036                       # average ReadReq miss latency ((Tick/Count))
system.cpu.dcache.ReadReq.mshrHits::cpu.data       308942                       # number of ReadReq MSHR hits (Count)
system.cpu.dcache.ReadReq.mshrHits::total       308942                       # number of ReadReq MSHR hits (Count)
system.cpu.dcache.ReadReq.mshrMisses::cpu.data       608227                       # number of ReadReq MSHR misses (Count)
system.cpu.dcache.ReadReq.mshrMisses::total       608227                       # number of ReadReq MSHR misses (Count)
system.cpu.dcache.ReadReq.mshrMissLatency::cpu.data  33620462500                       # number of ReadReq MSHR miss ticks (Tick)
system.cpu.dcache.ReadReq.mshrMissLatency::total  33620462500                       # number of ReadReq MSHR miss ticks (Tick)
system.cpu.dcache.ReadReq.mshrMissRate::cpu.data     0.076770                       # mshr miss rate for ReadReq accesses (Ratio)
system.cpu.dcache.ReadReq.mshrMissRate::total     0.076770                       # mshr miss rate for ReadReq accesses (Ratio)
system.cpu.dcache.ReadReq.avgMshrMissLatency::cpu.data 55276.175671                       # average ReadReq mshr miss latency ((Tick/Count))
system.cpu.dcache.ReadReq.avgMshrMissLatency::total 55276.175671                       # average ReadReq mshr miss latency ((Tick/Count))
system.cpu.dcache.WriteReq.hits::cpu.data      5929057                       # number of WriteReq hits (Count)
system.cpu.dcache.WriteReq.hits::total        5929057                       # number of WriteReq hits (Count)
system.cpu.dcache.WriteReq.misses::cpu.data       133968                       # number of WriteReq misses (Count)
system.cpu.dcache.WriteReq.misses::total       133968                       # number of WriteReq misses (Count)
system.cpu.dcache.WriteReq.missLatency::cpu.data   3907090497                       # number of WriteReq miss ticks (Tick)
system.cpu.dcache.WriteReq.missLatency::total   3907090497                       # number of WriteReq miss ticks (Tick)
system.cpu.dcache.WriteReq.accesses::cpu.data      6063025                       # number of WriteReq accesses(hits+misses) (Count)
system.cpu.dcache.WriteReq.accesses::total      6063025                       # number of WriteReq accesses(hits+misses) (Count)
system.cpu.dcache.WriteReq.missRate::cpu.data     0.022096                       # miss rate for WriteReq accesses (Ratio)
system.cpu.dcache.WriteReq.missRate::total     0.022096                       # miss rate for WriteReq accesses (Ratio)
system.cpu.dcache.WriteReq.avgMissLatency::cpu.data 29164.356391                       # average WriteReq miss latency ((Tick/Count))
system.cpu.dcache.WriteReq.avgMissLatency::total 29164.356391                       # average WriteReq miss latency ((Tick/Count))
system.cpu.dcache.WriteReq.mshrHits::cpu.data          852                       # number of WriteReq MSHR hits (Count)
system.cpu.dcache.WriteReq.mshrHits::total          852                       # number of WriteReq MSHR hits (Count)
system.cpu.dcache.WriteReq.mshrMisses::cpu.data       133116                       # number of WriteReq MSHR misses (Count)
system.cpu.dcache.WriteReq.mshrMisses::total       133116                       # number of WriteReq MSHR misses (Count)
system.cpu.dcache.WriteReq.mshrMissLatency::cpu.data   3751110997                       # number of WriteReq MSHR miss ticks (Tick)
system.cpu.dcache.WriteReq.mshrMissLatency::total   3751110997                       # number of WriteReq MSHR miss ticks (Tick)
system.cpu.dcache.WriteReq.mshrMissRate::cpu.data     0.021955                       # mshr miss rate for WriteReq accesses (Ratio)
system.cpu.dcache.WriteReq.mshrMissRate::total     0.021955                       # mshr miss rate for WriteReq accesses (Ratio)
system.cpu.dcache.WriteReq.avgMshrMissLatency::cpu.data 28179.264679                       # average WriteReq mshr miss latency ((Tick/Count))
system.cpu.dcache.WriteReq.avgMshrMissLatency::total 28179.264679                       # average WriteReq mshr miss latency ((Tick/Count))
system.cpu.dcache.power_state.pwrStateResidencyTicks::UNDEFINED  26630919500                       # Cumulative time (in ticks) in various power states (Tick)
system.cpu.dcache.tags.tagsInUse            31.998483                       # Average ticks per tags in use ((Tick/Count))
system.cpu.dcache.tags.totalRefs             13675931                       # Total number of references to valid blocks. (Count)
system.cpu.dcache.tags.sampledRefs             741343                       # Sample count of references to valid blocks. (Count)
system.cpu.dcache.tags.avgRefs              18.447508                       # Average number of references to valid blocks. ((Count/Count))
system.cpu.dcache.tags.warmupTick              145000                       # The tick when the warmup percentage was hit. (Tick)
system.cpu.dcache.tags.occupancies::cpu.data    31.998483                       # Average occupied blocks per tick, per requestor ((Count/Tick))
system.cpu.dcache.tags.avgOccs::cpu.data     0.999953                       # Average percentage of cache occupancy ((Ratio/Tick))
system.cpu.dcache.tags.avgOccs::total        0.999953                       # Average percentage of cache occupancy ((Ratio/Tick))
system.cpu.dcache.tags.occupanciesTaskId::1024           32                       # Occupied blocks per task id (Count)
system.cpu.dcache.tags.ageTaskId_1024::0           32                       # Occupied blocks per task id, per block age (Count)
system.cpu.dcache.tags.ratioOccsTaskId::1024            1                       # Ratio of occupied blocks and all blocks, per task id (Ratio)
system.cpu.dcache.tags.tagAccesses           28712793                       # Number of tag accesses (Count)
system.cpu.dcache.tags.dataAccesses          28712793                       # Number of data accesses (Count)
system.cpu.dcache.tags.power_state.pwrStateResidencyTicks::UNDEFINED  26630919500                       # Cumulative time (in ticks) in various power states (Tick)
system.cpu.decode.idleCycles                  6663690                       # Number of cycles decode is idle (Cycle)
system.cpu.decode.blockedCycles              33021632                       # Number of cycles decode is blocked (Cycle)
system.cpu.decode.runCycles                  10458723                       # Number of cycles decode is running (Cycle)
system.cpu.decode.unblockCycles               2211556                       # Number of cycles decode is unblocking (Cycle)
system.cpu.decode.squashCycles                 159939                       # Number of cycles decode is squashing (Cycle)
system.cpu.decode.branchResolved              5204531                       # Number of times decode resolved a branch (Count)
system.cpu.decode.branchMispred                 12811                       # Number of times decode detected a branch misprediction (Count)
system.cpu.decode.decodedInsts               85027072                       # Number of instructions handled by decode (Count)
system.cpu.decode.squashedInsts                100837                       # Number of squashed instructions handled by decode (Count)
system.cpu.dtb_walker_cache.blockedCycles::no_mshrs            0                       # number of cycles access was blocked (Cycle)
system.cpu.dtb_walker_cache.blockedCycles::no_targets            0                       # number of cycles access was blocked (Cycle)
system.cpu.dtb_walker_cache.blockedCauses::no_mshrs            0                       # number of times access was blocked (Count)
system.cpu.dtb_walker_cache.blockedCauses::no_targets            0                       # number of times access was blocked (Count)
system.cpu.dtb_walker_cache.avgBlocked::no_mshrs          nan                       # average number of cycles each access was blocked ((Cycle/Count))
system.cpu.dtb_walker_cache.avgBlocked::no_targets          nan                       # average number of cycles each access was blocked ((Cycle/Count))
system.cpu.dtb_walker_cache.replacements            0                       # number of replacements (Count)
system.cpu.dtb_walker_cache.power_state.pwrStateResidencyTicks::UNDEFINED  26630919500                       # Cumulative time (in ticks) in various power states (Tick)
system.cpu.dtb_walker_cache.tags.tagsInUse            0                       # Average ticks per tags in use ((Tick/Count))
system.cpu.dtb_walker_cache.tags.totalRefs            0                       # Total number of references to valid blocks. (Count)
system.cpu.dtb_walker_cache.tags.sampledRefs            0                       # Sample count of references to valid blocks. (Count)
system.cpu.dtb_walker_cache.tags.avgRefs          nan                       # Average number of references to valid blocks. ((Count/Count))
system.cpu.dtb_walker_cache.tags.warmupTick            0                       # The tick when the warmup percentage was hit. (Tick)
system.cpu.dtb_walker_cache.tags.tagAccesses            0                       # Number of tag accesses (Count)
system.cpu.dtb_walker_cache.tags.dataAccesses            0                       # Number of data accesses (Count)
system.cpu.dtb_walker_cache.tags.power_state.pwrStateResidencyTicks::UNDEFINED  26630919500                       # Cumulative time (in ticks) in various power states (Tick)
system.cpu.fetch.icacheStallCycles            8494928                       # Number of cycles fetch is stalled on an Icache miss (Cycle)
system.cpu.fetch.insts                       45434406                       # Number of instructions fetch has processed (Count)
system.cpu.fetch.branches                     9588103                       # Number of branches that fetch encountered (Count)
system.cpu.fetch.predictedBranches            6138326                       # Number of branches that fetch has predicted taken (Count)
system.cpu.fetch.cycles                      43843193                       # Number of cycles fetch has run and was not squashing or blocked (Cycle)
system.cpu.fetch.squashCycles                  345480                       # Number of cycles fetch has spent squashing (Cycle)
system.cpu.fetch.tlbCycles                        496                       # Number of cycles fetch has spent waiting for tlb (Cycle)
system.cpu.fetch.miscStallCycles                  164                       # Number of cycles fetch has spent waiting on interrupts, or bad addresses, or out of MSHRs (Cycle)
system.cpu.fetch.pendingTrapStallCycles          3950                       # Number of stall cycles due to pending traps (Cycle)
system.cpu.fetch.pendingQuiesceStallCycles            2                       # Number of stall cycles due to pending quiesce instructions (Cycle)
system.cpu.fetch.icacheWaitRetryStallCycles           67                       # Number of stall cycles due to full MSHR (Cycle)
system.cpu.fetch.cacheLines                   6454237                       # Number of cache lines fetched (Count)
system.cpu.fetch.icacheSquashes                 27969                       # Number of outstanding Icache misses that were squashed (Count)
system.cpu.fetch.nisnDist::samples           52515540                       # Number of instructions fetched each cycle (Total) (Count)
system.cpu.fetch.nisnDist::mean              1.668993                       # Number of instructions fetched each cycle (Total) (Count)
system.cpu.fetch.nisnDist::stdev             2.976198                       # Number of instructions fetched each cycle (Total) (Count)
system.cpu.fetch.nisnDist::underflows               0      0.00%      0.00% # Number of instructions fetched each cycle (Total) (Count)
system.cpu.fetch.nisnDist::0                 37944849     72.25%     72.25% # Number of instructions fetched each cycle (Total) (Count)
system.cpu.fetch.nisnDist::1                   819806      1.56%     73.82% # Number of instructions fetched each cycle (Total) (Count)
system.cpu.fetch.nisnDist::2                  1009613      1.92%     75.74% # Number of instructions fetched each cycle (Total) (Count)
system.cpu.fetch.nisnDist::3                  1002953      1.91%     77.65% # Number of instructions fetched each cycle (Total) (Count)
system.cpu.fetch.nisnDist::4                  1620618      3.09%     80.73% # Number of instructions fetched each cycle (Total) (Count)
system.cpu.fetch.nisnDist::5                  1189678      2.27%     83.00% # Number of instructions fetched each cycle (Total) (Count)
system.cpu.fetch.nisnDist::6                   663374      1.26%     84.26% # Number of instructions fetched each cycle (Total) (Count)
system.cpu.fetch.nisnDist::7                   728120      1.39%     85.65% # Number of instructions fetched each cycle (Total) (Count)
system.cpu.fetch.nisnDist::8                  7536529     14.35%    100.00% # Number of instructions fetched each cycle (Total) (Count)
system.cpu.fetch.nisnDist::overflows                0      0.00%    100.00% # Number of instructions fetched each cycle (Total) (Count)
system.cpu.fetch.nisnDist::min_value                0                       # Number of instructions fetched each cycle (Total) (Count)
system.cpu.fetch.nisnDist::max_value                8                       # Number of instructions fetched each cycle (Total) (Count)
system.cpu.fetch.nisnDist::total             52515540                       # Number of instructions fetched each cycle (Total) (Count)
system.cpu.fetch.branchRate                  0.180018                       # Number of branch fetches per cycle (Ratio)
system.cpu.fetch.rate                        0.853039                       # Number of inst fetches per cycle ((Count/Cycle))
system.cpu.icache.demandHits::cpu.inst        6403106                       # number of demand (read+write) hits (Count)
system.cpu.icache.demandHits::total           6403106                       # number of demand (read+write) hits (Count)
system.cpu.icache.overallHits::cpu.inst       6403106                       # number of overall hits (Count)
system.cpu.icache.overallHits::total          6403106                       # number of overall hits (Count)
system.cpu.icache.demandMisses::cpu.inst        51131                       # number of demand (read+write) misses (Count)
system.cpu.icache.demandMisses::total           51131                       # number of demand (read+write) misses (Count)
system.cpu.icache.overallMisses::cpu.inst        51131                       # number of overall misses (Count)
system.cpu.icache.overallMisses::total          51131                       # number of overall misses (Count)
system.cpu.icache.demandMissLatency::cpu.inst   1486844998                       # number of demand (read+write) miss ticks (Tick)
system.cpu.icache.demandMissLatency::total   1486844998                       # number of demand (read+write) miss ticks (Tick)
system.cpu.icache.overallMissLatency::cpu.inst   1486844998                       # number of overall miss ticks (Tick)
system.cpu.icache.overallMissLatency::total   1486844998                       # number of overall miss ticks (Tick)
system.cpu.icache.demandAccesses::cpu.inst      6454237                       # number of demand (read+write) accesses (Count)
system.cpu.icache.demandAccesses::total       6454237                       # number of demand (read+write) accesses (Count)
system.cpu.icache.overallAccesses::cpu.inst      6454237                       # number of overall (read+write) accesses (Count)
system.cpu.icache.overallAccesses::total      6454237                       # number of overall (read+write) accesses (Count)
system.cpu.icache.demandMissRate::cpu.inst     0.007922                       # miss rate for demand accesses (Ratio)
system.cpu.icache.demandMissRate::total      0.007922                       # miss rate for demand accesses (Ratio)
system.cpu.icache.overallMissRate::cpu.inst     0.007922                       # miss rate for overall accesses (Ratio)
system.cpu.icache.overallMissRate::total     0.007922                       # miss rate for overall accesses (Ratio)
system.cpu.icache.demandAvgMissLatency::cpu.inst 29079.130039                       # average overall miss latency ((Cycle/Count))
system.cpu.icache.demandAvgMissLatency::total 29079.130039                       # average overall miss latency ((Cycle/Count))
system.cpu.icache.overallAvgMissLatency::cpu.inst 29079.130039                       # average overall miss latency ((Cycle/Count))
system.cpu.icache.overallAvgMissLatency::total 29079.130039                       # average overall miss latency ((Cycle/Count))
system.cpu.icache.blockedCycles::no_mshrs          508                       # number of cycles access was blocked (Cycle)
system.cpu.icache.blockedCycles::no_targets            0                       # number of cycles access was blocked (Cycle)
system.cpu.icache.blockedCauses::no_mshrs           10                       # number of times access was blocked (Count)
system.cpu.icache.blockedCauses::no_targets            0                       # number of times access was blocked (Count)
system.cpu.icache.avgBlocked::no_mshrs      50.800000                       # average number of cycles each access was blocked ((Cycle/Count))
system.cpu.icache.avgBlocked::no_targets          nan                       # average number of cycles each access was blocked ((Cycle/Count))
system.cpu.icache.writebacks::writebacks        49820                       # number of writebacks (Count)
system.cpu.icache.writebacks::total             49820                       # number of writebacks (Count)
system.cpu.icache.demandMshrHits::cpu.inst          809                       # number of demand (read+write) MSHR hits (Count)
system.cpu.icache.demandMshrHits::total           809                       # number of demand (read+write) MSHR hits (Count)
system.cpu.icache.overallMshrHits::cpu.inst          809                       # number of overall MSHR hits (Count)
system.cpu.icache.overallMshrHits::total          809                       # number of overall MSHR hits (Count)
system.cpu.icache.demandMshrMisses::cpu.inst        50322                       # number of demand (read+write) MSHR misses (Count)
system.cpu.icache.demandMshrMisses::total        50322                       # number of demand (read+write) MSHR misses (Count)
system.cpu.icache.overallMshrMisses::cpu.inst        50322                       # number of overall MSHR misses (Count)
system.cpu.icache.overallMshrMisses::total        50322                       # number of overall MSHR misses (Count)
system.cpu.icache.demandMshrMissLatency::cpu.inst   1405995998                       # number of demand (read+write) MSHR miss ticks (Tick)
system.cpu.icache.demandMshrMissLatency::total   1405995998                       # number of demand (read+write) MSHR miss ticks (Tick)
system.cpu.icache.overallMshrMissLatency::cpu.inst   1405995998                       # number of overall MSHR miss ticks (Tick)
system.cpu.icache.overallMshrMissLatency::total   1405995998                       # number of overall MSHR miss ticks (Tick)
system.cpu.icache.demandMshrMissRate::cpu.inst     0.007797                       # mshr miss ratio for demand accesses (Ratio)
system.cpu.icache.demandMshrMissRate::total     0.007797                       # mshr miss ratio for demand accesses (Ratio)
system.cpu.icache.overallMshrMissRate::cpu.inst     0.007797                       # mshr miss ratio for overall accesses (Ratio)
system.cpu.icache.overallMshrMissRate::total     0.007797                       # mshr miss ratio for overall accesses (Ratio)
system.cpu.icache.demandAvgMshrMissLatency::cpu.inst 27939.986447                       # average overall mshr miss latency ((Cycle/Count))
system.cpu.icache.demandAvgMshrMissLatency::total 27939.986447                       # average overall mshr miss latency ((Cycle/Count))
system.cpu.icache.overallAvgMshrMissLatency::cpu.inst 27939.986447                       # average overall mshr miss latency ((Cycle/Count))
system.cpu.icache.overallAvgMshrMissLatency::total 27939.986447                       # average overall mshr miss latency ((Cycle/Count))
system.cpu.icache.replacements                  49820                       # number of replacements (Count)
system.cpu.icache.ReadReq.hits::cpu.inst      6403106                       # number of ReadReq hits (Count)
system.cpu.icache.ReadReq.hits::total         6403106                       # number of ReadReq hits (Count)
system.cpu.icache.ReadReq.misses::cpu.inst        51131                       # number of ReadReq misses (Count)
system.cpu.icache.ReadReq.misses::total         51131                       # number of ReadReq misses (Count)
system.cpu.icache.ReadReq.missLatency::cpu.inst   1486844998                       # number of ReadReq miss ticks (Tick)
system.cpu.icache.ReadReq.missLatency::total   1486844998                       # number of ReadReq miss ticks (Tick)
system.cpu.icache.ReadReq.accesses::cpu.inst      6454237                       # number of ReadReq accesses(hits+misses) (Count)
system.cpu.icache.ReadReq.accesses::total      6454237                       # number of ReadReq accesses(hits+misses) (Count)
system.cpu.icache.ReadReq.missRate::cpu.inst     0.007922                       # miss rate for ReadReq accesses (Ratio)
system.cpu.icache.ReadReq.missRate::total     0.007922                       # miss rate for ReadReq accesses (Ratio)
system.cpu.icache.ReadReq.avgMissLatency::cpu.inst 29079.130039                       # average ReadReq miss latency ((Tick/Count))
system.cpu.icache.ReadReq.avgMissLatency::total 29079.130039                       # average ReadReq miss latency ((Tick/Count))
system.cpu.icache.ReadReq.mshrHits::cpu.inst          809                       # number of ReadReq MSHR hits (Count)
system.cpu.icache.ReadReq.mshrHits::total          809                       # number of ReadReq MSHR hits (Count)
system.cpu.icache.ReadReq.mshrMisses::cpu.inst        50322                       # number of ReadReq MSHR misses (Count)
system.cpu.icache.ReadReq.mshrMisses::total        50322                       # number of ReadReq MSHR misses (Count)
system.cpu.icache.ReadReq.mshrMissLatency::cpu.inst   1405995998                       # number of ReadReq MSHR miss ticks (Tick)
system.cpu.icache.ReadReq.mshrMissLatency::total   1405995998                       # number of ReadReq MSHR miss ticks (Tick)
system.cpu.icache.ReadReq.mshrMissRate::cpu.inst     0.007797                       # mshr miss rate for ReadReq accesses (Ratio)
system.cpu.icache.ReadReq.mshrMissRate::total     0.007797                       # mshr miss rate for ReadReq accesses (Ratio)
system.cpu.icache.ReadReq.avgMshrMissLatency::cpu.inst 27939.986447                       # average ReadReq mshr miss latency ((Tick/Count))
system.cpu.icache.ReadReq.avgMshrMissLatency::total 27939.986447                       # average ReadReq mshr miss latency ((Tick/Count))
system.cpu.icache.power_state.pwrStateResidencyTicks::UNDEFINED  26630919500                       # Cumulative time (in ticks) in various power states (Tick)
system.cpu.icache.tags.tagsInUse           463.882015                       # Average ticks per tags in use ((Tick/Count))
system.cpu.icache.tags.totalRefs              6453428                       # Total number of references to valid blocks. (Count)
system.cpu.icache.tags.sampledRefs              50322                       # Sample count of references to valid blocks. (Count)
system.cpu.icache.tags.avgRefs             128.242677                       # Average number of references to valid blocks. ((Count/Count))
system.cpu.icache.tags.warmupTick               77000                       # The tick when the warmup percentage was hit. (Tick)
system.cpu.icache.tags.occupancies::cpu.inst   463.882015                       # Average occupied blocks per tick, per requestor ((Count/Tick))
system.cpu.icache.tags.avgOccs::cpu.inst     0.906020                       # Average percentage of cache occupancy ((Ratio/Tick))
system.cpu.icache.tags.avgOccs::total        0.906020                       # Average percentage of cache occupancy ((Ratio/Tick))
system.cpu.icache.tags.occupanciesTaskId::1024          501                       # Occupied blocks per task id (Count)
system.cpu.icache.tags.ageTaskId_1024::0          119                       # Occupied blocks per task id, per block age (Count)
system.cpu.icache.tags.ageTaskId_1024::2           26                       # Occupied blocks per task id, per block age (Count)
system.cpu.icache.tags.ageTaskId_1024::3           82                       # Occupied blocks per task id, per block age (Count)
system.cpu.icache.tags.ageTaskId_1024::4          274                       # Occupied blocks per task id, per block age (Count)
system.cpu.icache.tags.ratioOccsTaskId::1024     0.978516                       # Ratio of occupied blocks and all blocks, per task id (Ratio)
system.cpu.icache.tags.tagAccesses           12958796                       # Number of tag accesses (Count)
system.cpu.icache.tags.dataAccesses          12958796                       # Number of data accesses (Count)
system.cpu.icache.tags.power_state.pwrStateResidencyTicks::UNDEFINED  26630919500                       # Cumulative time (in ticks) in various power states (Tick)
system.cpu.iew.idleCycles                           0                       # Number of cycles IEW is idle (Cycle)
system.cpu.iew.squashCycles                    159939                       # Number of cycles IEW is squashing (Cycle)
system.cpu.iew.blockCycles                    6251907                       # Number of cycles IEW is blocking (Cycle)
system.cpu.iew.unblockCycles                  2857402                       # Number of cycles IEW is unblocking (Cycle)
system.cpu.iew.dispatchedInsts               83255762                       # Number of instructions dispatched to IQ (Count)
system.cpu.iew.dispSquashedInsts                79755                       # Number of squashed instructions skipped by dispatch (Count)
system.cpu.iew.dispLoadInsts                 11667687                       # Number of dispatched load instructions (Count)
system.cpu.iew.dispStoreInsts                 6475902                       # Number of dispatched store instructions (Count)
system.cpu.iew.dispNonSpecInsts                    23                       # Number of dispatched non-speculative instructions (Count)
system.cpu.iew.iqFullEvents                    110573                       # Number of times the IQ has become full, causing a stall (Count)
system.cpu.iew.lsqFullEvents                  2679580                       # Number of times the LSQ has become full, causing a stall (Count)
system.cpu.iew.memOrderViolationEvents           6670                       # Number of memory order violations (Count)
system.cpu.iew.predictedTakenIncorrect          73364                       # Number of branches that were predicted taken incorrectly (Count)
system.cpu.iew.predictedNotTakenIncorrect       102169                       # Number of branches that were predicted not taken incorrectly (Count)
system.cpu.iew.branchMispredicts               175533                       # Number of branch mispredicts detected at execute (Count)
system.cpu.iew.instsToCommit                 81144546                       # Cumulative count of insts sent to commit (Count)
system.cpu.iew.writebackCount                81116086                       # Cumulative count of insts written-back (Count)
system.cpu.iew.producerInst                  56717894                       # Number of instructions producing a value (Count)
system.cpu.iew.consumerInst                  96596531                       # Number of instructions consuming a value (Count)
system.cpu.iew.wbRate                        1.522968                       # Insts written-back per cycle ((Count/Cycle))
system.cpu.iew.wbFanout                      0.587163                       # Average fanout of values written-back ((Count/Count))
system.cpu.interrupts.clk_domain.clock           8000                       # Clock period in ticks (Tick)
system.cpu.itb_walker_cache.blockedCycles::no_mshrs            0                       # number of cycles access was blocked (Cycle)
system.cpu.itb_walker_cache.blockedCycles::no_targets            0                       # number of cycles access was blocked (Cycle)
system.cpu.itb_walker_cache.blockedCauses::no_mshrs            0                       # number of times access was blocked (Count)
system.cpu.itb_walker_cache.blockedCauses::no_targets            0                       # number of times access was blocked (Count)
system.cpu.itb_walker_cache.avgBlocked::no_mshrs          nan                       # average number of cycles each access was blocked ((Cycle/Count))
system.cpu.itb_walker_cache.avgBlocked::no_targets          nan                       # average number of cycles each access was blocked ((Cycle/Count))
system.cpu.itb_walker_cache.replacements            0                       # number of replacements (Count)
system.cpu.itb_walker_cache.power_state.pwrStateResidencyTicks::UNDEFINED  26630919500                       # Cumulative time (in ticks) in various power states (Tick)
system.cpu.itb_walker_cache.tags.tagsInUse            0                       # Average ticks per tags in use ((Tick/Count))
system.cpu.itb_walker_cache.tags.totalRefs            0                       # Total number of references to valid blocks. (Count)
system.cpu.itb_walker_cache.tags.sampledRefs            0                       # Sample count of references to valid blocks. (Count)
system.cpu.itb_walker_cache.tags.avgRefs          nan                       # Average number of references to valid blocks. ((Count/Count))
system.cpu.itb_walker_cache.tags.warmupTick            0                       # The tick when the warmup percentage was hit. (Tick)
system.cpu.itb_walker_cache.tags.tagAccesses            0                       # Number of tag accesses (Count)
system.cpu.itb_walker_cache.tags.dataAccesses            0                       # Number of data accesses (Count)
system.cpu.itb_walker_cache.tags.power_state.pwrStateResidencyTicks::UNDEFINED  26630919500                       # Cumulative time (in ticks) in various power states (Tick)
system.cpu.lsq0.forwLoads                     3624360                       # Number of loads that had data forwarded from stores (Count)
system.cpu.lsq0.squashedLoads                  549811                       # Number of loads squashed (Count)
system.cpu.lsq0.ignoredResponses                  297                       # Number of memory responses ignored because the instruction is squashed (Count)
system.cpu.lsq0.memOrderViolation                6670                       # Number of memory ordering violations (Count)
system.cpu.lsq0.squashedStores                 412878                       # Number of stores squashed (Count)
system.cpu.lsq0.rescheduledLoads                    2                       # Number of loads that were rescheduled (Count)
system.cpu.lsq0.blockedByCache                  19968                       # Number of times an access to memory failed due to the cache being blocked (Count)
system.cpu.lsq0.loadToUse::samples           11117876                       # Distribution of cycle latency between the first time a load is issued and its completion (Unspecified)
system.cpu.lsq0.loadToUse::mean             11.010714                       # Distribution of cycle latency between the first time a load is issued and its completion (Unspecified)
system.cpu.lsq0.loadToUse::stdev            32.815952                       # Distribution of cycle latency between the first time a load is issued and its completion (Unspecified)
system.cpu.lsq0.loadToUse::0-9               10212057     91.85%     91.85% # Distribution of cycle latency between the first time a load is issued and its completion (Unspecified)
system.cpu.lsq0.loadToUse::10-19                22132      0.20%     92.05% # Distribution of cycle latency between the first time a load is issued and its completion (Unspecified)
system.cpu.lsq0.loadToUse::20-29                 4589      0.04%     92.09% # Distribution of cycle latency between the first time a load is issued and its completion (Unspecified)
system.cpu.lsq0.loadToUse::30-39                20782      0.19%     92.28% # Distribution of cycle latency between the first time a load is issued and its completion (Unspecified)
system.cpu.lsq0.loadToUse::40-49                63424      0.57%     92.85% # Distribution of cycle latency between the first time a load is issued and its completion (Unspecified)
system.cpu.lsq0.loadToUse::50-59               110853      1.00%     93.85% # Distribution of cycle latency between the first time a load is issued and its completion (Unspecified)
system.cpu.lsq0.loadToUse::60-69                29111      0.26%     94.11% # Distribution of cycle latency between the first time a load is issued and its completion (Unspecified)
system.cpu.lsq0.loadToUse::70-79                 8685      0.08%     94.19% # Distribution of cycle latency between the first time a load is issued and its completion (Unspecified)
[...]
system.mem_ctrls.dram.bwWrite::total        505846897                       # Write bandwidth from this memory ((Byte/Second))
system.mem_ctrls.dram.bwTotal::writebacks    505846897                       # Total bandwidth to/from this memory ((Byte/Second))
system.mem_ctrls.dram.bwTotal::cpu.inst     120932512                       # Total bandwidth to/from this memory ((Byte/Second))
system.mem_ctrls.dram.bwTotal::cpu.data    1781611484                       # Total bandwidth to/from this memory ((Byte/Second))
system.mem_ctrls.dram.bwTotal::total       2408390893                       # Total bandwidth to/from this memory ((Byte/Second))
system.mem_ctrls.dram.readBursts               564561                       # Number of DRAM read bursts (Count)
system.mem_ctrls.dram.writeBursts               90704                       # Number of DRAM write bursts (Count)
system.mem_ctrls.dram.perBankRdBursts::0        12070                       # Per bank write bursts (Count)
system.mem_ctrls.dram.perBankRdBursts::1        66699                       # Per bank write bursts (Count)
system.mem_ctrls.dram.perBankRdBursts::2        76176                       # Per bank write bursts (Count)
system.mem_ctrls.dram.perBankRdBursts::3       129333                       # Per bank write bursts (Count)
system.mem_ctrls.dram.perBankRdBursts::4        64724                       # Per bank write bursts (Count)
system.mem_ctrls.dram.perBankRdBursts::5         1865                       # Per bank write bursts (Count)
system.mem_ctrls.dram.perBankRdBursts::6        20451                       # Per bank write bursts (Count)
system.mem_ctrls.dram.perBankRdBursts::7        18465                       # Per bank write bursts (Count)
system.mem_ctrls.dram.perBankRdBursts::8        89563                       # Per bank write bursts (Count)
system.mem_ctrls.dram.perBankRdBursts::9         9254                       # Per bank write bursts (Count)
system.mem_ctrls.dram.perBankRdBursts::10        21700                       # Per bank write bursts (Count)
system.mem_ctrls.dram.perBankRdBursts::11        35770                       # Per bank write bursts (Count)
system.mem_ctrls.dram.perBankRdBursts::12         1470                       # Per bank write bursts (Count)
system.mem_ctrls.dram.perBankRdBursts::13         5011                       # Per bank write bursts (Count)
system.mem_ctrls.dram.perBankRdBursts::14         6260                       # Per bank write bursts (Count)
system.mem_ctrls.dram.perBankRdBursts::15         5750                       # Per bank write bursts (Count)
system.mem_ctrls.dram.perBankWrBursts::0          571                       # Per bank write bursts (Count)
system.mem_ctrls.dram.perBankWrBursts::1         2402                       # Per bank write bursts (Count)
system.mem_ctrls.dram.perBankWrBursts::2          569                       # Per bank write bursts (Count)
system.mem_ctrls.dram.perBankWrBursts::3          596                       # Per bank write bursts (Count)
system.mem_ctrls.dram.perBankWrBursts::4          567                       # Per bank write bursts (Count)
system.mem_ctrls.dram.perBankWrBursts::5          582                       # Per bank write bursts (Count)
system.mem_ctrls.dram.perBankWrBursts::6          540                       # Per bank write bursts (Count)
system.mem_ctrls.dram.perBankWrBursts::7          593                       # Per bank write bursts (Count)
system.mem_ctrls.dram.perBankWrBursts::8          581                       # Per bank write bursts (Count)
system.mem_ctrls.dram.perBankWrBursts::9          740                       # Per bank write bursts (Count)
system.mem_ctrls.dram.perBankWrBursts::10        59339                       # Per bank write bursts (Count)
system.mem_ctrls.dram.perBankWrBursts::11         7212                       # Per bank write bursts (Count)
system.mem_ctrls.dram.perBankWrBursts::12          507                       # Per bank write bursts (Count)
system.mem_ctrls.dram.perBankWrBursts::13         7714                       # Per bank write bursts (Count)
system.mem_ctrls.dram.perBankWrBursts::14          560                       # Per bank write bursts (Count)
system.mem_ctrls.dram.perBankWrBursts::15         7631                       # Per bank write bursts (Count)
system.mem_ctrls.dram.totQLat              5221609500                       # Total ticks spent queuing (Tick)
system.mem_ctrls.dram.totBusLat            2822805000                       # Total ticks spent in databus transfers (Tick)
system.mem_ctrls.dram.totMemAccLat        15807128250                       # Total ticks spent from burst creation until serviced by the DRAM (Tick)
system.mem_ctrls.dram.avgQLat                 9248.97                       # Average queueing delay per DRAM burst ((Tick/Count))
system.mem_ctrls.dram.avgBusLat               5000.00                       # Average bus latency per DRAM burst ((Tick/Count))
system.mem_ctrls.dram.avgMemAccLat           27998.97                       # Average memory access latency per DRAM burst ((Tick/Count))
system.mem_ctrls.dram.readRowHits              468489                       # Number of row buffer hits during reads (Count)
system.mem_ctrls.dram.writeRowHits              85656                       # Number of row buffer hits during writes (Count)
system.mem_ctrls.dram.readRowHitRate            82.98                       # Row buffer hit rate for reads (Ratio)
system.mem_ctrls.dram.writeRowHitRate           94.43                       # Row buffer hit rate for writes (Ratio)
system.mem_ctrls.dram.bytesPerActivate::samples       101113                       # Bytes accessed per row activation (Byte)
system.mem_ctrls.dram.bytesPerActivate::mean   414.741369                       # Bytes accessed per row activation (Byte)
system.mem_ctrls.dram.bytesPerActivate::gmean   258.174227                       # Bytes accessed per row activation (Byte)
system.mem_ctrls.dram.bytesPerActivate::stdev   380.284962                       # Bytes accessed per row activation (Byte)
system.mem_ctrls.dram.bytesPerActivate::0-127        16659     16.48%     16.48% # Bytes accessed per row activation (Byte)
system.mem_ctrls.dram.bytesPerActivate::128-255        37775     37.36%     53.83% # Bytes accessed per row activation (Byte)
system.mem_ctrls.dram.bytesPerActivate::256-383         6803      6.73%     60.56% # Bytes accessed per row activation (Byte)
system.mem_ctrls.dram.bytesPerActivate::384-511         7274      7.19%     67.76% # Bytes accessed per row activation (Byte)
system.mem_ctrls.dram.bytesPerActivate::512-639         3470      3.43%     71.19% # Bytes accessed per row activation (Byte)
system.mem_ctrls.dram.bytesPerActivate::640-767         2498      2.47%     73.66% # Bytes accessed per row activation (Byte)
system.mem_ctrls.dram.bytesPerActivate::768-895         1206      1.19%     74.85% # Bytes accessed per row activation (Byte)
system.mem_ctrls.dram.bytesPerActivate::896-1023         1061      1.05%     75.90% # Bytes accessed per row activation (Byte)
system.mem_ctrls.dram.bytesPerActivate::1024-1151        24367     24.10%    100.00% # Bytes accessed per row activation (Byte)
system.mem_ctrls.dram.bytesPerActivate::total       101113                       # Bytes accessed per row activation (Byte)
system.mem_ctrls.dram.bytesRead              36131904                       # Total bytes read (Byte)
system.mem_ctrls.dram.bytesWritten            5805056                       # Total bytes written (Byte)
system.mem_ctrls.dram.avgRdBW             1356.765169                       # Average DRAM read bandwidth in MiBytes/s ((Byte/Second))
system.mem_ctrls.dram.avgWrBW              217.981809                       # Average DRAM write bandwidth in MiBytes/s ((Byte/Second))
system.mem_ctrls.dram.peakBW                 12800.00                       # Theoretical peak bandwidth in MiByte/s ((Byte/Second))
system.mem_ctrls.dram.busUtil                   12.30                       # Data bus utilization in percentage (Ratio)
system.mem_ctrls.dram.busUtilRead               10.60                       # Data bus utilization in percentage for reads (Ratio)
system.mem_ctrls.dram.busUtilWrite               1.70                       # Data bus utilization in percentage for writes (Ratio)
system.mem_ctrls.dram.pageHitRate               84.57                       # Row buffer hit rate, read and write combined (Ratio)
system.mem_ctrls.dram.power_state.pwrStateResidencyTicks::UNDEFINED  26630919500                       # Cumulative time (in ticks) in various power states (Tick)
system.mem_ctrls.dram.rank0.actEnergy       324648660                       # Energy for activate commands per rank (pJ) (Joule)
system.mem_ctrls.dram.rank0.preEnergy       172543470                       # Energy for precharge commands per rank (pJ) (Joule)
system.mem_ctrls.dram.rank0.readEnergy     2783050620                       # Energy for read commands per rank (pJ) (Joule)
system.mem_ctrls.dram.rank0.writeEnergy      33512400                       # Energy for write commands per rank (pJ) (Joule)
system.mem_ctrls.dram.rank0.refreshEnergy 2102068800.000000                       # Energy for refresh commands per rank (pJ) (Joule)
system.mem_ctrls.dram.rank0.actBackEnergy  11860350240                       # Energy for active background per rank (pJ) (Joule)
system.mem_ctrls.dram.rank0.preBackEnergy    238609920                       # Energy for precharge background per rank (pJ) (Joule)
system.mem_ctrls.dram.rank0.actPowerDownEnergy            0                       # Energy for active power-down per rank (pJ) (Joule)
system.mem_ctrls.dram.rank0.prePowerDownEnergy            0                       # Energy for precharge power-down per rank (pJ) (Joule)
system.mem_ctrls.dram.rank0.selfRefreshEnergy            0                       # Energy for self refresh per rank (pJ) (Joule)
system.mem_ctrls.dram.rank0.totalEnergy   17514784110                       # Total energy per rank (pJ) (Joule)
system.mem_ctrls.dram.rank0.averagePower   657.686045                       # Core power per rank (mW) (Watt)
system.mem_ctrls.dram.rank0.totalIdleTime            0                       # Total Idle time Per DRAM Rank (Tick)
system.mem_ctrls.dram.rank0.pwrStateTime::IDLE    525646000                       # Time in different power states (Tick)
system.mem_ctrls.dram.rank0.pwrStateTime::REF    889200000                       # Time in different power states (Tick)
system.mem_ctrls.dram.rank0.pwrStateTime::SREF            0                       # Time in different power states (Tick)
system.mem_ctrls.dram.rank0.pwrStateTime::PRE_PDN            0                       # Time in different power states (Tick)
system.mem_ctrls.dram.rank0.pwrStateTime::ACT  25216073500                       # Time in different power states (Tick)
system.mem_ctrls.dram.rank0.pwrStateTime::ACT_PDN            0                       # Time in different power states (Tick)
system.mem_ctrls.dram.rank1.actEnergy       397348140                       # Energy for activate commands per rank (pJ) (Joule)
system.mem_ctrls.dram.rank1.preEnergy       211180365                       # Energy for precharge commands per rank (pJ) (Joule)
system.mem_ctrls.dram.rank1.readEnergy     1247914920                       # Energy for read commands per rank (pJ) (Joule)
system.mem_ctrls.dram.rank1.writeEnergy     439962480                       # Energy for write commands per rank (pJ) (Joule)
system.mem_ctrls.dram.rank1.refreshEnergy 2102068800.000000                       # Energy for refresh commands per rank (pJ) (Joule)
system.mem_ctrls.dram.rank1.actBackEnergy  11428329000                       # Energy for active background per rank (pJ) (Joule)
system.mem_ctrls.dram.rank1.preBackEnergy    602417280                       # Energy for precharge background per rank (pJ) (Joule)
system.mem_ctrls.dram.rank1.actPowerDownEnergy            0                       # Energy for active power-down per rank (pJ) (Joule)
system.mem_ctrls.dram.rank1.prePowerDownEnergy            0                       # Energy for precharge power-down per rank (pJ) (Joule)
system.mem_ctrls.dram.rank1.selfRefreshEnergy            0                       # Energy for self refresh per rank (pJ) (Joule)
system.mem_ctrls.dram.rank1.totalEnergy   16429220985                       # Total energy per rank (pJ) (Joule)
system.mem_ctrls.dram.rank1.averagePower   616.922783                       # Core power per rank (mW) (Watt)
system.mem_ctrls.dram.rank1.totalIdleTime            0                       # Total Idle time Per DRAM Rank (Tick)
system.mem_ctrls.dram.rank1.pwrStateTime::IDLE   1464599500                       # Time in different power states (Tick)
system.mem_ctrls.dram.rank1.pwrStateTime::REF    889200000                       # Time in different power states (Tick)
system.mem_ctrls.dram.rank1.pwrStateTime::SREF            0                       # Time in different power states (Tick)
system.mem_ctrls.dram.rank1.pwrStateTime::PRE_PDN            0                       # Time in different power states (Tick)
system.mem_ctrls.dram.rank1.pwrStateTime::ACT  24277120000                       # Time in different power states (Tick)
system.mem_ctrls.dram.rank1.pwrStateTime::ACT_PDN            0                       # Time in different power states (Tick)
system.mem_ctrls.power_state.pwrStateResidencyTicks::UNDEFINED  26630919500                       # Cumulative time (in ticks) in various power states (Tick)
system.membus.transDist::ReadResp              657935                       # Transaction distribution (Count)
system.membus.transDist::WritebackDirty        210487                       # Transaction distribution (Count)
system.membus.transDist::WritebackClean         49820                       # Transaction distribution (Count)
system.membus.transDist::CleanEvict            530824                       # Transaction distribution (Count)
system.membus.transDist::ReadExReq             133730                       # Transaction distribution (Count)
system.membus.transDist::ReadExResp            133730                       # Transaction distribution (Count)
system.membus.transDist::ReadCleanReq           50322                       # Transaction distribution (Count)
system.membus.transDist::ReadSharedReq         607613                       # Transaction distribution (Count)
system.membus.pktCount_system.cpu.icache.mem_side_port::system.mem_ctrls.port       150463                       # Packet count per connected requestor and responder (Count)
system.membus.pktCount_system.cpu.icache.mem_side_port::total       150463                       # Packet count per connected requestor and responder (Count)
system.membus.pktCount_system.cpu.dcache.mem_side_port::system.mem_ctrls.port      2223997                       # Packet count per connected requestor and responder (Count)
system.membus.pktCount_system.cpu.dcache.mem_side_port::total      2223997                       # Packet count per connected requestor and responder (Count)
system.membus.pktCount::total                 2374460                       # Packet count per connected requestor and responder (Count)
system.membus.pktSize_system.cpu.icache.mem_side_port::system.mem_ctrls.port      6409024                       # Cumulative packet size per connected requestor and responder (Byte)
system.membus.pktSize_system.cpu.icache.mem_side_port::total      6409024                       # Cumulative packet size per connected requestor and responder (Byte)
system.membus.pktSize_system.cpu.dcache.mem_side_port::system.mem_ctrls.port     60917120                       # Cumulative packet size per connected requestor and responder (Byte)
system.membus.pktSize_system.cpu.dcache.mem_side_port::total     60917120                       # Cumulative packet size per connected requestor and responder (Byte)
system.membus.pktSize::total                 67326144                       # Cumulative packet size per connected requestor and responder (Byte)
system.membus.snoops                                1                       # Total snoops (Count)
system.membus.snoopTraffic                         64                       # Total snoop traffic (Byte)
system.membus.snoopFanout::samples             791665                       # Request fanout histogram (Count)
system.membus.snoopFanout::mean              0.000018                       # Request fanout histogram (Count)
system.membus.snoopFanout::stdev             0.004205                       # Request fanout histogram (Count)
system.membus.snoopFanout::underflows               0      0.00%      0.00% # Request fanout histogram (Count)
system.membus.snoopFanout::0                   791651    100.00%    100.00% # Request fanout histogram (Count)
system.membus.snoopFanout::1                       14      0.00%    100.00% # Request fanout histogram (Count)
system.membus.snoopFanout::2                        0      0.00%    100.00% # Request fanout histogram (Count)
system.membus.snoopFanout::3                        0      0.00%    100.00% # Request fanout histogram (Count)
system.membus.snoopFanout::4                        0      0.00%    100.00% # Request fanout histogram (Count)
system.membus.snoopFanout::overflows                0      0.00%    100.00% # Request fanout histogram (Count)
system.membus.snoopFanout::min_value                0                       # Request fanout histogram (Count)
system.membus.snoopFanout::max_value                1                       # Request fanout histogram (Count)
system.membus.snoopFanout::total               791665                       # Request fanout histogram (Count)
system.membus.power_state.pwrStateResidencyTicks::UNDEFINED  26630919500                       # Cumulative time (in ticks) in various power states (Tick)
system.membus.reqLayer2.occupancy          2793307000                       # Layer occupancy (ticks) (Tick)
system.membus.reqLayer2.utilization               0.1                       # Layer utilization (Ratio)
system.membus.respLayer1.occupancy          254607275                       # Layer occupancy (ticks) (Tick)
system.membus.respLayer1.utilization              0.0                       # Layer utilization (Ratio)
system.membus.respLayer2.occupancy         3869447250                       # Layer occupancy (ticks) (Tick)
system.membus.respLayer2.utilization              0.1                       # Layer utilization (Ratio)
system.membus.snoop_filter.totRequests        1582796                       # Total number of requests made to the snoop filter. (Count)
system.membus.snoop_filter.hitSingleRequests       791132                       # Number of requests hitting in the snoop filter with a single holder of the requested data. (Count)
system.membus.snoop_filter.hitMultiRequests           13                       # Number of requests hitting in the snoop filter with multiple (>1) holders of the requested data. (Count)
system.membus.snoop_filter.totSnoops                0                       # Total number of snoops made to the snoop filter. (Count)
system.membus.snoop_filter.hitSingleSnoops            0                       # Number of snoops hitting in the snoop filter with a single holder of the requested data. (Count)
system.membus.snoop_filter.hitMultiSnoops            0                       # Number of snoops hitting in the snoop filter with multiple (>1) holders of the requested data. (Count)
system.voltage_domain.voltage                       1                       # Voltage in Volts (Volt)
system.workload.inst.arm                            0                       # number of arm instructions executed (Count)
system.workload.inst.quiesce                        0                       # number of quiesce instructions executed (Count)

---------- End Simulation Statistics   ----------
