
---------- Begin Simulation Statistics ----------
simSeconds                                   0.012615                       # Number of seconds simulated (Second)
simTicks                                  12615338500                       # Number of ticks simulated (Tick)
finalTick                                 12615338500                       # Number of ticks from beginning of simulation (restored from checkpoints and never reset) (Tick)
simFreq                                  1000000000000                       # The number of ticks per simulated second ((Tick/Second))
hostSeconds                                     99.05                       # Real time elapsed on the host (Second)
hostTickRate                                127368538                       # The number of ticks simulated per host second (ticks/s) ((Tick/Second))
hostMemory                                     665908                       # Number of bytes of host memory used (Byte)
simInsts                                     41289468                       # Number of instructions simulated (Count)
simOps                                       78315814                       # Number of ops (including micro ops) simulated (Count)
hostInstRate                                   416872                       # Simulator instruction rate (inst/s) ((Count/Second))
hostOpRate                                     790701                       # Simulator op (including micro ops) rate (op/s) ((Count/Second))
system.clk_domain.clock                          1000                       # Clock period in ticks (Tick)
system.cpu.numCycles                         25230678                       # Number of cpu cycles simulated (Cycle)
system.cpu.numWorkItemsStarted                      0                       # Number of work items this cpu started (Count)
system.cpu.numWorkItemsCompleted                    0                       # Number of work items this cpu completed (Count)
system.cpu.instsAdded                        82629876                       # Number of instructions added to the IQ (excludes non-spec) (Count)
system.cpu.nonSpecInstsAdded                       54                       # Number of non-speculative instructions added to the IQ (Count)
system.cpu.instsIssued                       80999855                       # Number of instructions issued (Count)
system.cpu.squashedInstsIssued                  30362                       # Number of squashed instructions issued (Count)
system.cpu.squashedInstsExamined              4314110                       # Number of squashed instructions iterated over during squash; mainly for profiling (Count)
system.cpu.squashedOperandsExamined           6946285                       # Number of squashed operands that are examined and possibly removed from graph (Count)
system.cpu.squashedNonSpecRemoved                  36                       # Number of squashed non-spec instructions that were removed (Count)
system.cpu.numIssuedDist::samples            24515832                       # Number of insts issued each cycle (Count)
system.cpu.numIssuedDist::mean               3.303981                       # Number of insts issued each cycle (Count)
system.cpu.numIssuedDist::stdev              2.251931                       # Number of insts issued each cycle (Count)
system.cpu.numIssuedDist::underflows                0      0.00%      0.00% # Number of insts issued each cycle (Count)
system.cpu.numIssuedDist::0                   3889982     15.87%     15.87% # Number of insts issued each cycle (Count)
system.cpu.numIssuedDist::1                   1953074      7.97%     23.83% # Number of insts issued each cycle (Count)
system.cpu.numIssuedDist::2                   3829326     15.62%     39.45% # Number of insts issued each cycle (Count)
system.cpu.numIssuedDist::3                   3318782     13.54%     52.99% # Number of insts issued each cycle (Count)
system.cpu.numIssuedDist::4                   3809286     15.54%     68.53% # Number of insts issued each cycle (Count)
system.cpu.numIssuedDist::5                   2956539     12.06%     80.59% # Number of insts issued each cycle (Count)
system.cpu.numIssuedDist::6                   2630571     10.73%     91.32% # Number of insts issued each cycle (Count)
system.cpu.numIssuedDist::7                   1397658      5.70%     97.02% # Number of insts issued each cycle (Count)
system.cpu.numIssuedDist::8                    730614      2.98%    100.00% # Number of insts issued each cycle (Count)
system.cpu.numIssuedDist::overflows                 0      0.00%    100.00% # Number of insts issued each cycle (Count)
system.cpu.numIssuedDist::min_value                 0                       # Number of insts issued each cycle (Count)
system.cpu.numIssuedDist::max_value                 8                       # Number of insts issued each cycle (Count)
system.cpu.numIssuedDist::total              24515832                       # Number of insts issued each cycle (Count)
system.cpu.statFuBusy::No_OpClass                   0      0.00%      0.00% # attempts to use FU when none available (Count)
system.cpu.statFuBusy::IntAlu                  854258     63.56%     63.56% # attempts to use FU when none available (Count)
system.cpu.statFuBusy::IntMult                      0      0.00%     63.56% # attempts to use FU when none available (Count)
system.cpu.statFuBusy::IntDiv                       0      0.00%     63.56% # attempts to use FU when none available (Count)
system.cpu.statFuBusy::FloatAdd                     0      0.00%     63.56% # attempts to use FU when none available (Count)
system.cpu.statFuBusy::FloatCmp                     0      0.00%     63.56% # attempts to use FU when none available (Count)
system.cpu.statFuBusy::FloatCvt                     0      0.00%     63.56% # attempts to use FU when none available (Count)
system.cpu.statFuBusy::FloatMult                    0      0.00%     63.56% # attempts to use FU when none available (Count)
system.cpu.statFuBusy::FloatMultAcc                 0      0.00%     63.56% # attempts to use FU when none available (Count)
system.cpu.statFuBusy::FloatDiv                     0      0.00%     63.56% # attempts to use FU when none available (Count)
system.cpu.statFuBusy::FloatMisc                    0      0.00%     63.56% # attempts to use FU when none available (Count)
system.cpu.statFuBusy::FloatSqrt                    0      0.00%     63.56% # attempts to use FU when none available (Count)
system.cpu.statFuBusy::SimdAdd                      0      0.00%     63.56% # attempts to use FU when none available (Count)
system.cpu.statFuBusy::SimdAddAcc                   0      0.00%     63.56% # attempts to use FU when none available (Count)
system.cpu.statFuBusy::SimdAlu                  20235      1.51%     65.07% # attempts to use FU when none available (Count)
system.cpu.statFuBusy::SimdCmp                      0      0.00%     65.07% # attempts to use FU when none available (Count)
system.cpu.statFuBusy::SimdCvt                    127      0.01%     65.08% # attempts to use FU when none available (Count)
system.cpu.statFuBusy::SimdMisc                  8913      0.66%     65.74% # attempts to use FU when none available (Count)
system.cpu.statFuBusy::SimdMult                     0      0.00%     65.74% # attempts to use FU when none available (Count)
system.cpu.statFuBusy::SimdMultAcc                  0      0.00%     65.74% # attempts to use FU when none available (Count)
system.cpu.statFuBusy::SimdShift                    0      0.00%     65.74% # attempts to use FU when none available (Count)
system.cpu.statFuBusy::SimdShiftAcc                 0      0.00%     65.74% # attempts to use FU when none available (Count)
system.cpu.statFuBusy::SimdDiv                      0      0.00%     65.74% # attempts to use FU when none available (Count)
system.cpu.statFuBusy::SimdSqrt                     0      0.00%     65.74% # attempts to use FU when none available (Count)
system.cpu.statFuBusy::SimdFloatAdd                 0      0.00%     65.74% # attempts to use FU when none available (Count)
system.cpu.statFuBusy::SimdFloatAlu                 0      0.00%     65.74% # attempts to use FU when none available (Count)
system.cpu.statFuBusy::SimdFloatCmp                 0      0.00%     65.74% # attempts to use FU when none available (Count)
system.cpu.statFuBusy::SimdFloatCvt                 0      0.00%     65.74% # attempts to use FU when none available (Count)
system.cpu.statFuBusy::SimdFloatDiv                 0      0.00%     65.74% # attempts to use FU when none available (Count)
system.cpu.statFuBusy::SimdFloatMisc                0      0.00%     65.74% # attempts to use FU when none available (Count)
system.cpu.statFuBusy::SimdFloatMult                0      0.00%     65.74% # attempts to use FU when none available (Count)
system.cpu.statFuBusy::SimdFloatMultAcc             0      0.00%     65.74% # attempts to use FU when none available (Count)
system.cpu.statFuBusy::SimdFloatSqrt                0      0.00%     65.74% # attempts to use FU when none available (Count)
system.cpu.statFuBusy::SimdReduceAdd                0      0.00%     65.74% # attempts to use FU when none available (Count)
system.cpu.statFuBusy::SimdReduceAlu                0      0.00%     65.74% # attempts to use FU when none available (Count)
system.cpu.statFuBusy::SimdReduceCmp                0      0.00%     65.74% # attempts to use FU when none available (Count)
system.cpu.statFuBusy::SimdFloatReduceAdd            0      0.00%     65.74% # attempts to use FU when none available (Count)
system.cpu.statFuBusy::SimdFloatReduceCmp            0      0.00%     65.74% # attempts to use FU when none available (Count)
system.cpu.statFuBusy::SimdAes                      0      0.00%     65.74% # attempts to use FU when none available (Count)
system.cpu.statFuBusy::SimdAesMix                   0      0.00%     65.74% # attempts to use FU when none available (Count)
system.cpu.statFuBusy::SimdSha1Hash                 0      0.00%     65.74% # attempts to use FU when none available (Count)
system.cpu.statFuBusy::SimdSha1Hash2                0      0.00%     65.74% # attempts to use FU when none available (Count)
system.cpu.statFuBusy::SimdSha256Hash               0      0.00%     65.74% # attempts to use FU when none available (Count)
system.cpu.statFuBusy::SimdSha256Hash2              0      0.00%     65.74% # attempts to use FU when none available (Count)
system.cpu.statFuBusy::SimdShaSigma2                0      0.00%     65.74% # attempts to use FU when none available (Count)
system.cpu.statFuBusy::SimdShaSigma3                0      0.00%     65.74% # attempts to use FU when none available (Count)
system.cpu.statFuBusy::SimdPredAlu                  0      0.00%     65.74% # attempts to use FU when none available (Count)
system.cpu.statFuBusy::MemRead                 386722     28.78%     94.52% # attempts to use FU when none available (Count)
system.cpu.statFuBusy::MemWrite                 36235      2.70%     97.22% # attempts to use FU when none available (Count)
system.cpu.statFuBusy::FloatMemRead             24748      1.84%     99.06% # attempts to use FU when none available (Count)
system.cpu.statFuBusy::FloatMemWrite            12676      0.94%    100.00% # attempts to use FU when none available (Count)
system.cpu.statFuBusy::IprAccess                    0      0.00%    100.00% # attempts to use FU when none available (Count)
system.cpu.statFuBusy::InstPrefetch                 0      0.00%    100.00% # attempts to use FU when none available (Count)
system.cpu.statIssuedInstType_0::No_OpClass       866703      1.07%      1.07% # Number of instructions issued per FU type, per thread (Count)
system.cpu.statIssuedInstType_0::IntAlu      59251027     73.15%     74.22% # Number of instructions issued per FU type, per thread (Count)
system.cpu.statIssuedInstType_0::IntMult        89550      0.11%     74.33% # Number of instructions issued per FU type, per thread (Count)
system.cpu.statIssuedInstType_0::IntDiv        910367      1.12%     75.45% # Number of instructions issued per FU type, per thread (Count)
system.cpu.statIssuedInstType_0::FloatAdd       901184      1.11%     76.57% # Number of instructions issued per FU type, per thread (Count)
system.cpu.statIssuedInstType_0::FloatCmp            0      0.00%     76.57% # Number of instructions issued per FU type, per thread (Count)
system.cpu.statIssuedInstType_0::FloatCvt            0      0.00%     76.57% # Number of instructions issued per FU type, per thread (Count)
system.cpu.statIssuedInstType_0::FloatMult            0      0.00%     76.57% # Number of instructions issued per FU type, per thread (Count)
system.cpu.statIssuedInstType_0::FloatMultAcc            0      0.00%     76.57% # Number of instructions issued per FU type, per thread (Count)
system.cpu.statIssuedInstType_0::FloatDiv            0      0.00%     76.57% # Number of instructions issued per FU type, per thread (Count)
system.cpu.statIssuedInstType_0::FloatMisc            0      0.00%     76.57% # Number of instructions issued per FU type, per thread (Count)
system.cpu.statIssuedInstType_0::FloatSqrt            0      0.00%     76.57% # Number of instructions issued per FU type, per thread (Count)
system.cpu.statIssuedInstType_0::SimdAdd            0      0.00%     76.57% # Number of instructions issued per FU type, per thread (Count)
system.cpu.statIssuedInstType_0::SimdAddAcc            0      0.00%     76.57% # Number of instructions issued per FU type, per thread (Count)
system.cpu.statIssuedInstType_0::SimdAlu       287830      0.36%     76.92% # Number of instructions issued per FU type, per thread (Count)
system.cpu.statIssuedInstType_0::SimdCmp          336      0.00%     76.92% # Number of instructions issued per FU type, per thread (Count)
system.cpu.statIssuedInstType_0::SimdCvt       164808      0.20%     77.13% # Number of instructions issued per FU type, per thread (Count)
system.cpu.statIssuedInstType_0::SimdMisc       259085      0.32%     77.45% # Number of instructions issued per FU type, per thread (Count)
system.cpu.statIssuedInstType_0::SimdMult            0      0.00%     77.45% # Number of instructions issued per FU type, per thread (Count)
system.cpu.statIssuedInstType_0::SimdMultAcc            0      0.00%     77.45% # Number of instructions issued per FU type, per thread (Count)
system.cpu.statIssuedInstType_0::SimdShift            0      0.00%     77.45% # Number of instructions issued per FU type, per thread (Count)
system.cpu.statIssuedInstType_0::SimdShiftAcc            0      0.00%     77.45% # Number of instructions issued per FU type, per thread (Count)
system.cpu.statIssuedInstType_0::SimdDiv            0      0.00%     77.45% # Number of instructions issued per FU type, per thread (Count)
system.cpu.statIssuedInstType_0::SimdSqrt            0      0.00%     77.45% # Number of instructions issued per FU type, per thread (Count)
system.cpu.statIssuedInstType_0::SimdFloatAdd       278540      0.34%     77.79% # Number of instructions issued per FU type, per thread (Count)
system.cpu.statIssuedInstType_0::SimdFloatAlu            0      0.00%     77.79% # Number of instructions issued per FU type, per thread (Count)
system.cpu.statIssuedInstType_0::SimdFloatCmp            0      0.00%     77.79% # Number of instructions issued per FU type, per thread (Count)
system.cpu.statIssuedInstType_0::SimdFloatCvt        16388      0.02%     77.81% # Number of instructions issued per FU type, per thread (Count)
system.cpu.statIssuedInstType_0::SimdFloatDiv            0      0.00%     77.81% # Number of instructions issued per FU type, per thread (Count)
system.cpu.statIssuedInstType_0::SimdFloatMisc            0      0.00%     77.81% # Number of instructions issued per FU type, per thread (Count)
system.cpu.statIssuedInstType_0::SimdFloatMult       262144      0.32%     78.13% # Number of instructions issued per FU type, per thread (Count)
system.cpu.statIssuedInstType_0::SimdFloatMultAcc            0      0.00%     78.13% # Number of instructions issued per FU type, per thread (Count)
system.cpu.statIssuedInstType_0::SimdFloatSqrt            0      0.00%     78.13% # Number of instructions issued per FU type, per thread (Count)
system.cpu.statIssuedInstType_0::SimdReduceAdd            0      0.00%     78.13% # Number of instructions issued per FU type, per thread (Count)
system.cpu.statIssuedInstType_0::SimdReduceAlu            0      0.00%     78.13% # Number of instructions issued per FU type, per thread (Count)
system.cpu.statIssuedInstType_0::SimdReduceCmp            0      0.00%     78.13% # Number of instructions issued per FU type, per thread (Count)
system.cpu.statIssuedInstType_0::SimdFloatReduceAdd            0      0.00%     78.13% # Number of instructions issued per FU type, per thread (Count)
system.cpu.statIssuedInstType_0::SimdFloatReduceCmp            0      0.00%     78.13% # Number of instructions issued per FU type, per thread (Count)
system.cpu.statIssuedInstType_0::SimdAes            0      0.00%     78.13% # Number of instructions issued per FU type, per thread (Count)
system.cpu.statIssuedInstType_0::SimdAesMix            0      0.00%     78.13% # Number of instructions issued per FU type, per thread (Count)
system.cpu.statIssuedInstType_0::SimdSha1Hash            0      0.00%     78.13% # Number of instructions issued per FU type, per thread (Count)
system.cpu.statIssuedInstType_0::SimdSha1Hash2            0      0.00%     78.13% # Number of instructions issued per FU type, per thread (Count)
system.cpu.statIssuedInstType_0::SimdSha256Hash            0      0.00%     78.13% # Number of instructions issued per FU type, per thread (Count)
system.cpu.statIssuedInstType_0::SimdSha256Hash2            0      0.00%     78.13% # Number of instructions issued per FU type, per thread (Count)
system.cpu.statIssuedInstType_0::SimdShaSigma2            0      0.00%     78.13% # Number of instructions issued per FU type, per thread (Count)
system.cpu.statIssuedInstType_0::SimdShaSigma3            0      0.00%     78.13% # Number of instructions issued per FU type, per thread (Count)
system.cpu.statIssuedInstType_0::SimdPredAlu            0      0.00%     78.13% # Number of instructions issued per FU type, per thread (Count)
system.cpu.statIssuedInstType_0::MemRead     10157025     12.54%     90.67% # Number of instructions issued per FU type, per thread (Count)
system.cpu.statIssuedInstType_0::MemWrite      5450386      6.73%     97.40% # Number of instructions issued per FU type, per thread (Count)
system.cpu.statIssuedInstType_0::FloatMemRead      1342428      1.66%     99.06% # Number of instructions issued per FU type, per thread (Count)
system.cpu.statIssuedInstType_0::FloatMemWrite       762054      0.94%    100.00% # Number of instructions issued per FU type, per thread (Count)
system.cpu.statIssuedInstType_0::IprAccess            0      0.00%    100.00% # Number of instructions issued per FU type, per thread (Count)
system.cpu.statIssuedInstType_0::InstPrefetch            0      0.00%    100.00% # Number of instructions issued per FU type, per thread (Count)
system.cpu.statIssuedInstType_0::total       80999855                       # Number of instructions issued per FU type, per thread (Count)
system.cpu.issueRate                         3.210372                       # Inst issue rate ((Count/Cycle))
system.cpu.fuBusy                             1343914                       # FU busy when requested (Count)
system.cpu.fuBusyRate                        0.016592                       # FU busy rate (busy events/executed inst) ((Count/Count))
system.cpu.intInstQueueReads                179188173                       # Number of integer instruction queue reads (Count)
system.cpu.intInstQueueWrites                82486081                       # Number of integer instruction queue writes (Count)
system.cpu.intInstQueueWakeupAccesses        76226298                       # Number of integer instruction queue wakeup accesses (Count)
system.cpu.fpInstQueueReads                   8701645                       # Number of floating instruction queue reads (Count)
system.cpu.fpInstQueueWrites                  4458580                       # Number of floating instruction queue writes (Count)
system.cpu.fpInstQueueWakeupAccesses          4304875                       # Number of floating instruction queue wakeup accesses (Count)
system.cpu.vecInstQueueReads                        0                       # Number of vector instruction queue reads (Count)
system.cpu.vecInstQueueWrites                       0                       # Number of vector instruction queue writes (Count)
system.cpu.vecInstQueueWakeupAccesses               0                       # Number of vector instruction queue wakeup accesses (Count)
system.cpu.intAluAccesses                    77094449                       # Number of integer alu accesses (Count)
system.cpu.fpAluAccesses                      4382617                       # Number of floating point alu accesses (Count)
system.cpu.vecAluAccesses                           0                       # Number of vector alu accesses (Count)
system.cpu.numInsts                          80605683                       # Number of executed instructions (Count)
system.cpu.numLoadInsts                      11451016                       # Number of load instructions executed (Count)
system.cpu.numSquashedInsts                    394172                       # Number of squashed instructions skipped in execute (Count)
system.cpu.numSwp                                   0                       # Number of swp insts executed (Count)
system.cpu.numNop                                   0                       # Number of nop insts executed (Count)
system.cpu.numRefs                           17615579                       # Number of memory reference insts executed (Count)
system.cpu.numBranches                        8635705                       # Number of branches executed (Count)
system.cpu.numStoreInsts                      6164563                       # Number of stores executed (Count)
system.cpu.numRate                           3.194749                       # Inst execution rate ((Count/Cycle))
system.cpu.timesIdled                           35770                       # Number of times that the entire CPU went into an idle state and unscheduled itself (Count)
system.cpu.idleCycles                          714846                       # Total number of cycles that the CPU has spent unscheduled due to idling (Cycle)
system.cpu.committedInsts                    41289468                       # Number of Instructions Simulated (Count)
system.cpu.committedOps                      78315814                       # Number of Ops (including micro ops) Simulated (Count)
system.cpu.cpi                               0.611068                       # CPI: Cycles Per Instruction ((Cycle/Count))
system.cpu.totalCpi                          0.611068                       # CPI: Total CPI of All Threads ((Cycle/Count))
system.cpu.ipc                               1.636479                       # IPC: Instructions Per Cycle ((Count/Cycle))
system.cpu.totalIpc                          1.636479                       # IPC: Total IPC of All Threads ((Count/Cycle))
system.cpu.intRegfileReads                  124735269                       # Number of integer regfile reads (Count)
system.cpu.intRegfileWrites                  63406052                       # Number of integer regfile writes (Count)
system.cpu.fpRegfileReads                     3888257                       # Number of floating regfile reads (Count)
system.cpu.fpRegfileWrites                    3361489                       # Number of floating regfile writes (Count)
system.cpu.ccRegfileReads                    44171158                       # number of cc regfile reads (Count)
system.cpu.ccRegfileWrites                   26319040                       # number of cc regfile writes (Count)
system.cpu.miscRegfileReads                  32540471                       # number of misc regfile reads (Count)
system.cpu.MemDepUnit__0.insertedLoads       11563465                       # Number of loads inserted to the mem dependence unit. (Count)
system.cpu.MemDepUnit__0.insertedStores       6393982                       # Number of stores inserted to the mem dependence unit. (Count)
system.cpu.MemDepUnit__0.conflictingLoads      2935343                       # Number of conflicting loads. (Count)
system.cpu.MemDepUnit__0.conflictingStores      1064851                       # Number of conflicting stores. (Count)
system.cpu.MemDepUnit__1.insertedLoads              0                       # Number of loads inserted to the mem dependence unit. (Count)
system.cpu.MemDepUnit__1.insertedStores             0                       # Number of stores inserted to the mem dependence unit. (Count)
system.cpu.MemDepUnit__1.conflictingLoads            0                       # Number of conflicting loads. (Count)
system.cpu.MemDepUnit__1.conflictingStores            0                       # Number of conflicting stores. (Count)
system.cpu.MemDepUnit__2.insertedLoads              0                       # Number of loads inserted to the mem dependence unit. (Count)
system.cpu.MemDepUnit__2.insertedStores             0                       # Number of stores inserted to the mem dependence unit. (Count)
system.cpu.MemDepUnit__2.conflictingLoads            0                       # Number of conflicting loads. (Count)
system.cpu.MemDepUnit__2.conflictingStores            0                       # Number of conflicting stores. (Count)
system.cpu.MemDepUnit__3.insertedLoads              0                       # Number of loads inserted to the mem dependence unit. (Count)
system.cpu.MemDepUnit__3.insertedStores             0                       # Number of stores inserted to the mem dependence unit. (Count)
system.cpu.MemDepUnit__3.conflictingLoads            0                       # Number of conflicting loads. (Count)
system.cpu.MemDepUnit__3.conflictingStores            0                       # Number of conflicting stores. (Count)
system.cpu.branchPred.lookups                 9484147                       # Number of BP lookups (Count)
system.cpu.branchPred.condPredicted           7653752                       # Number of conditional branches predicted (Count)
system.cpu.branchPred.condIncorrect            156641                       # Number of conditional branches incorrect (Count)
system.cpu.branchPred.BTBLookups              5545928                       # Number of BTB lookups (Count)
system.cpu.branchPred.BTBHits                 5494073                       # Number of BTB hits (Count)
system.cpu.branchPred.BTBHitRatio            0.990650                       # BTB Hit Ratio (Ratio)
system.cpu.branchPred.RASUsed                  522643                       # Number of times the RAS was used to get a target. (Count)
system.cpu.branchPred.RASIncorrect                  1                       # Number of incorrect RAS predictions. (Count)
system.cpu.branchPred.indirectLookups          109794                       # Number of indirect predictor lookups. (Count)
system.cpu.branchPred.indirectHits             108757                       # Number of indirect target hits. (Count)
system.cpu.branchPred.indirectMisses             1037                       # Number of indirect misses. (Count)
system.cpu.branchPred.indirectMispredicted          176                       # Number of mispredicted indirect branches. (Count)
system.cpu.commit.commitSquashedInsts         4120630                       # The number of squashed insts skipped by commit (Count)
system.cpu.commit.commitNonSpecStalls              18                       # The number of times commit has been forced to stall to communicate backwards (Count)
system.cpu.commit.branchMispredicts            144014                       # The number of times a branch was mispredicted (Count)
system.cpu.commit.numCommittedDist::samples     23931761                       # Number of insts commited each cycle (Count)
system.cpu.commit.numCommittedDist::mean     3.272463                       # Number of insts commited each cycle (Count)
system.cpu.commit.numCommittedDist::stdev     2.899421                       # Number of insts commited each cycle (Count)
system.cpu.commit.numCommittedDist::underflows            0      0.00%      0.00% # Number of insts commited each cycle (Count)
system.cpu.commit.numCommittedDist::0         4645014     19.41%     19.41% # Number of insts commited each cycle (Count)
system.cpu.commit.numCommittedDist::1         3958506     16.54%     35.95% # Number of insts commited each cycle (Count)
system.cpu.commit.numCommittedDist::2         3496921     14.61%     50.56% # Number of insts commited each cycle (Count)
system.cpu.commit.numCommittedDist::3         3369283     14.08%     64.64% # Number of insts commited each cycle (Count)
system.cpu.commit.numCommittedDist::4         1522371      6.36%     71.00% # Number of insts commited each cycle (Count)
system.cpu.commit.numCommittedDist::5          772397      3.23%     74.23% # Number of insts commited each cycle (Count)
system.cpu.commit.numCommittedDist::6          669327      2.80%     77.03% # Number of insts commited each cycle (Count)
system.cpu.commit.numCommittedDist::7          695350      2.91%     79.93% # Number of insts commited each cycle (Count)
system.cpu.commit.numCommittedDist::8         4802592     20.07%    100.00% # Number of insts commited each cycle (Count)
system.cpu.commit.numCommittedDist::overflows            0      0.00%    100.00% # Number of insts commited each cycle (Count)
system.cpu.commit.numCommittedDist::min_value            0                       # Number of insts commited each cycle (Count)
system.cpu.commit.numCommittedDist::max_value            8                       # Number of insts commited each cycle (Count)
system.cpu.commit.numCommittedDist::total     23931761                       # Number of insts commited each cycle (Count)
system.cpu.commit.instsCommitted             41289468                       # Number of instructions committed (Count)
system.cpu.commit.opsCommitted               78315814                       # Number of ops (including micro ops) committed (Count)
system.cpu.commit.memRefs                    17180900                       # Number of memory references committed (Count)
system.cpu.commit.loads                      11117876                       # Number of loads committed (Count)
system.cpu.commit.amos                              0                       # Number of atomic instructions committed (Count)
system.cpu.commit.membars                          12                       # Number of memory barriers committed (Count)
system.cpu.commit.branches                    8399625                       # Number of branches committed (Count)
system.cpu.commit.vectorInstructions                0                       # Number of committed Vector instructions. (Count)
system.cpu.commit.floating                    4284466                       # Number of committed floating point instructions. (Count)
system.cpu.commit.integer                    74436717                       # Number of committed integer instructions. (Count)
system.cpu.commit.functionCalls                491734                       # Number of function calls committed. (Count)
system.cpu.commit.committedInstType_0::No_OpClass       850890      1.09%      1.09% # Class of committed instruction (Count)
system.cpu.commit.committedInstType_0::IntAlu     57163185     72.99%     74.08% # Class of committed instruction (Count)
system.cpu.commit.committedInstType_0::IntMult        89549      0.11%     74.19% # Class of committed instruction (Count)
system.cpu.commit.committedInstType_0::IntDiv       882475      1.13%     75.32% # Class of committed instruction (Count)
system.cpu.commit.committedInstType_0::FloatAdd       880794      1.12%     76.44% # Class of committed instruction (Count)
system.cpu.commit.committedInstType_0::FloatCmp            0      0.00%     76.44% # Class of committed instruction (Count)
system.cpu.commit.committedInstType_0::FloatCvt            0      0.00%     76.44% # Class of committed instruction (Count)
system.cpu.commit.committedInstType_0::FloatMult            0      0.00%     76.44% # Class of committed instruction (Count)
system.cpu.commit.committedInstType_0::FloatMultAcc            0      0.00%     76.44% # Class of committed instruction (Count)
system.cpu.commit.committedInstType_0::FloatDiv            0      0.00%     76.44% # Class of committed instruction (Count)
system.cpu.commit.committedInstType_0::FloatMisc            0      0.00%     76.44% # Class of committed instruction (Count)
system.cpu.commit.committedInstType_0::FloatSqrt            0      0.00%     76.44% # Class of committed instruction (Count)
system.cpu.commit.committedInstType_0::SimdAdd            0      0.00%     76.44% # Class of committed instruction (Count)
system.cpu.commit.committedInstType_0::SimdAddAcc            0      0.00%     76.44% # Class of committed instruction (Count)
system.cpu.commit.committedInstType_0::SimdAlu       287296      0.37%     76.81% # Class of committed instruction (Count)
system.cpu.commit.committedInstType_0::SimdCmp          336      0.00%     76.81% # Class of committed instruction (Count)
system.cpu.commit.committedInstType_0::SimdCvt       164462      0.21%     77.02% # Class of committed instruction (Count)
system.cpu.commit.committedInstType_0::SimdMisc       258871      0.33%     77.35% # Class of committed instruction (Count)
system.cpu.commit.committedInstType_0::SimdMult            0      0.00%     77.35% # Class of committed instruction (Count)
system.cpu.commit.committedInstType_0::SimdMultAcc            0      0.00%     77.35% # Class of committed instruction (Count)
system.cpu.commit.committedInstType_0::SimdShift            0      0.00%     77.35% # Class of committed instruction (Count)
system.cpu.commit.committedInstType_0::SimdShiftAcc            0      0.00%     77.35% # Class of committed instruction (Count)
system.cpu.commit.committedInstType_0::SimdDiv            0      0.00%     77.35% # Class of committed instruction (Count)
system.cpu.commit.committedInstType_0::SimdSqrt            0      0.00%     77.35% # Class of committed instruction (Count)
system.cpu.commit.committedInstType_0::SimdFloatAdd       278528      0.36%     77.71% # Class of committed instruction (Count)
system.cpu.commit.committedInstType_0::SimdFloatAlu            0      0.00%     77.71% # Class of committed instruction (Count)
system.cpu.commit.committedInstType_0::SimdFloatCmp            0      0.00%     77.71% # Class of committed instruction (Count)
system.cpu.commit.committedInstType_0::SimdFloatCvt        16384      0.02%     77.73% # Class of committed instruction (Count)
system.cpu.commit.committedInstType_0::SimdFloatDiv            0      0.00%     77.73% # Class of committed instruction (Count)
system.cpu.commit.committedInstType_0::SimdFloatMisc            0      0.00%     77.73% # Class of committed instruction (Count)
system.cpu.commit.committedInstType_0::SimdFloatMult       262144      0.33%     78.06% # Class of committed instruction (Count)
system.cpu.commit.committedInstType_0::SimdFloatMultAcc            0      0.00%     78.06% # Class of committed instruction (Count)
system.cpu.commit.committedInstType_0::SimdFloatSqrt            0      0.00%     78.06% # Class of committed instruction (Count)
system.cpu.commit.committedInstType_0::SimdReduceAdd            0      0.00%     78.06% # Class of committed instruction (Count)
system.cpu.commit.committedInstType_0::SimdReduceAlu            0      0.00%     78.06% # Class of committed instruction (Count)
system.cpu.commit.committedInstType_0::SimdReduceCmp            0      0.00%     78.06% # Class of committed instruction (Count)
system.cpu.commit.committedInstType_0::SimdFloatReduceAdd            0      0.00%     78.06% # Class of committed instruction (Count)
system.cpu.commit.committedInstType_0::SimdFloatReduceCmp            0      0.00%     78.06% # Class of committed instruction (Count)
system.cpu.commit.committedInstType_0::SimdAes            0      0.00%     78.06% # Class of committed instruction (Count)
system.cpu.commit.committedInstType_0::SimdAesMix            0      0.00%     78.06% # Class of committed instruction (Count)
system.cpu.commit.committedInstType_0::SimdSha1Hash            0      0.00%     78.06% # Class of committed instruction (Count)
system.cpu.commit.committedInstType_0::SimdSha1Hash2            0      0.00%     78.06% # Class of committed instruction (Count)
system.cpu.commit.committedInstType_0::SimdSha256Hash            0      0.00%     78.06% # Class of committed instruction (Count)
system.cpu.commit.committedInstType_0::SimdSha256Hash2            0      0.00%     78.06% # Class of committed instruction (Count)
system.cpu.commit.committedInstType_0::SimdShaSigma2            0      0.00%     78.06% # Class of committed instruction (Count)
system.cpu.commit.committedInstType_0::SimdShaSigma3            0      0.00%     78.06% # Class of committed instruction (Count)
system.cpu.commit.committedInstType_0::SimdPredAlu            0      0.00%     78.06% # Class of committed instruction (Count)
system.cpu.commit.committedInstType_0::MemRead      9777520     12.48%     90.55% # Class of committed instruction (Count)
system.cpu.commit.committedInstType_0::MemWrite      5308845      6.78%     97.33% # Class of committed instruction (Count)
system.cpu.commit.committedInstType_0::FloatMemRead      1340356      1.71%     99.04% # Class of committed instruction (Count)
system.cpu.commit.committedInstType_0::FloatMemWrite       754179      0.96%    100.00% # Class of committed instruction (Count)
system.cpu.commit.committedInstType_0::IprAccess            0      0.00%    100.00% # Class of committed instruction (Count)
system.cpu.commit.committedInstType_0::InstPrefetch            0      0.00%    100.00% # Class of committed instruction (Count)
system.cpu.commit.committedInstType_0::total     78315814                       # Class of committed instruction (Count)
system.cpu.commit.commitEligibleSamples       4802592                       # number cycles where commit BW limit reached (Cycle)
system.cpu.dcache.demandHits::cpu.data       14552241                       # number of demand (read+write) hits (Count)
system.cpu.dcache.demandHits::total          14552241                       # number of demand (read+write) hits (Count)
system.cpu.dcache.overallHits::cpu.data      14552241                       # number of overall hits (Count)
system.cpu.dcache.overallHits::total         14552241                       # number of overall hits (Count)
system.cpu.dcache.demandMisses::cpu.data        15787                       # number of demand (read+write) misses (Count)
system.cpu.dcache.demandMisses::total           15787                       # number of demand (read+write) misses (Count)
system.cpu.dcache.overallMisses::cpu.data        15787                       # number of overall misses (Count)
system.cpu.dcache.overallMisses::total          15787                       # number of overall misses (Count)
system.cpu.dcache.demandMissLatency::cpu.data    980342500                       # number of demand (read+write) miss ticks (Tick)
system.cpu.dcache.demandMissLatency::total    980342500                       # number of demand (read+write) miss ticks (Tick)
system.cpu.dcache.overallMissLatency::cpu.data    980342500                       # number of overall miss ticks (Tick)
system.cpu.dcache.overallMissLatency::total    980342500                       # number of overall miss ticks (Tick)
system.cpu.dcache.demandAccesses::cpu.data     14568028                       # number of demand (read+write) accesses (Count)
system.cpu.dcache.demandAccesses::total      14568028                       # number of demand (read+write) accesses (Count)
system.cpu.dcache.overallAccesses::cpu.data     14568028                       # number of overall (read+write) accesses (Count)
system.cpu.dcache.overallAccesses::total     14568028                       # number of overall (read+write) accesses (Count)
system.cpu.dcache.demandMissRate::cpu.data     0.001084                       # miss rate for demand accesses (Ratio)
system.cpu.dcache.demandMissRate::total      0.001084                       # miss rate for demand accesses (Ratio)
system.cpu.dcache.overallMissRate::cpu.data     0.001084                       # miss rate for overall accesses (Ratio)
system.cpu.dcache.overallMissRate::total     0.001084                       # miss rate for overall accesses (Ratio)
system.cpu.dcache.demandAvgMissLatency::cpu.data 62098.087034                       # average overall miss latency ((Cycle/Count))
system.cpu.dcache.demandAvgMissLatency::total 62098.087034                       # average overall miss latency ((Cycle/Count))
system.cpu.dcache.overallAvgMissLatency::cpu.data 62098.087034                       # average overall miss latency ((Cycle/Count))
system.cpu.dcache.overallAvgMissLatency::total 62098.087034                       # average overall miss latency ((Cycle/Count))
system.cpu.dcache.blockedCycles::no_mshrs          970                       # number of cycles access was blocked (Cycle)
system.cpu.dcache.blockedCycles::no_targets            0                       # number of cycles access was blocked (Cycle)
system.cpu.dcache.blockedCauses::no_mshrs           25                       # number of times access was blocked (Count)
system.cpu.dcache.blockedCauses::no_targets            0                       # number of times access was blocked (Count)
system.cpu.dcache.avgBlocked::no_mshrs      38.800000                       # average number of cycles each access was blocked ((Cycle/Count))
system.cpu.dcache.avgBlocked::no_targets          nan                       # average number of cycles each access was blocked ((Cycle/Count))
system.cpu.dcache.writebacks::writebacks         5591                       # number of writebacks (Count)
system.cpu.dcache.writebacks::total              5591                       # number of writebacks (Count)
system.cpu.dcache.demandMshrHits::cpu.data         7243                       # number of demand (read+write) MSHR hits (Count)
system.cpu.dcache.demandMshrHits::total          7243                       # number of demand (read+write) MSHR hits (Count)
system.cpu.dcache.overallMshrHits::cpu.data         7243                       # number of overall MSHR hits (Count)
system.cpu.dcache.overallMshrHits::total         7243                       # number of overall MSHR hits (Count)
system.cpu.dcache.demandMshrMisses::cpu.data         8544                       # number of demand (read+write) MSHR misses (Count)
system.cpu.dcache.demandMshrMisses::total         8544                       # number of demand (read+write) MSHR misses (Count)
system.cpu.dcache.overallMshrMisses::cpu.data         8544                       # number of overall MSHR misses (Count)
system.cpu.dcache.overallMshrMisses::total         8544                       # number of overall MSHR misses (Count)
system.cpu.dcache.demandMshrMissLatency::cpu.data    514087500                       # number of demand (read+write) MSHR miss ticks (Tick)
system.cpu.dcache.demandMshrMissLatency::total    514087500                       # number of demand (read+write) MSHR miss ticks (Tick)
system.cpu.dcache.overallMshrMissLatency::cpu.data    514087500                       # number of overall MSHR miss ticks (Tick)
system.cpu.dcache.overallMshrMissLatency::total    514087500                       # number of overall MSHR miss ticks (Tick)
system.cpu.dcache.demandMshrMissRate::cpu.data     0.000586                       # mshr miss ratio for demand accesses (Ratio)
system.cpu.dcache.demandMshrMissRate::total     0.000586                       # mshr miss ratio for demand accesses (Ratio)
system.cpu.dcache.overallMshrMissRate::cpu.data     0.000586                       # mshr miss ratio for overall accesses (Ratio)
system.cpu.dcache.overallMshrMissRate::total     0.000586                       # mshr miss ratio for overall accesses (Ratio)
system.cpu.dcache.demandAvgMshrMissLatency::cpu.data 60169.417135                       # average overall mshr miss latency ((Cycle/Count))
system.cpu.dcache.demandAvgMshrMissLatency::total 60169.417135                       # average overall mshr miss latency ((Cycle/Count))
system.cpu.dcache.overallAvgMshrMissLatency::cpu.data 60169.417135                       # average overall mshr miss latency ((Cycle/Count))
system.cpu.dcache.overallAvgMshrMissLatency::total 60169.417135                       # average overall mshr miss latency ((Cycle/Count))
system.cpu.dcache.replacements                   6496                       # number of replacements (Count)
system.cpu.dcache.ReadReq.hits::cpu.data      8492572                       # number of ReadReq hits (Count)
system.cpu.dcache.ReadReq.hits::total         8492572                       # number of ReadReq hits (Count)
system.cpu.dcache.ReadReq.misses::cpu.data        12431                       # number of ReadReq misses (Count)
system.cpu.dcache.ReadReq.misses::total         12431                       # number of ReadReq misses (Count)
system.cpu.dcache.ReadReq.missLatency::cpu.data    782336500                       # number of ReadReq miss ticks (Tick)
system.cpu.dcache.ReadReq.missLatency::total    782336500                       # number of ReadReq miss ticks (Tick)
system.cpu.dcache.ReadReq.accesses::cpu.data      8505003                       # number of ReadReq accesses(hits+misses) (Count)
system.cpu.dcache.ReadReq.accesses::total      8505003                       # number of ReadReq accesses(hits+misses) (Count)
system.cpu.dcache.ReadReq.missRate::cpu.data     0.001462                       # miss rate for ReadReq accesses (Ratio)
system.cpu.dcache.ReadReq.missRate::total     0.001462                       # miss rate for ReadReq accesses (Ratio)
system.cpu.dcache.ReadReq.avgMissLatency::cpu.data 62934.317432                       # average ReadReq miss latency ((Tick/Count))
system.cpu.dcache.ReadReq.avgMissLatency::total 62934.317432                       # average ReadReq miss latency ((Tick/Count))
system.cpu.dcache.ReadReq.mshrHits::cpu.data         7240                       # number of ReadReq MSHR hits (Count)
system.cpu.dcache.ReadReq.mshrHits::total         7240                       # number of ReadReq MSHR hits (Count)
system.cpu.dcache.ReadReq.mshrMisses::cpu.data         5191                       # number of ReadReq MSHR misses (Count)
system.cpu.dcache.ReadReq.mshrMisses::total         5191                       # number of ReadReq MSHR misses (Count)
system.cpu.dcache.ReadReq.mshrMissLatency::cpu.data    319551000                       # number of ReadReq MSHR miss ticks (Tick)
system.cpu.dcache.ReadReq.mshrMissLatency::total    319551000                       # number of ReadReq MSHR miss ticks (Tick)
system.cpu.dcache.ReadReq.mshrMissRate::cpu.data     0.000610                       # mshr miss rate for ReadReq accesses (Ratio)
system.cpu.dcache.ReadReq.mshrMissRate::total     0.000610                       # mshr miss rate for ReadReq accesses (Ratio)
system.cpu.dcache.ReadReq.avgMshrMissLatency::cpu.data 61558.659218                       # average ReadReq mshr miss latency ((Tick/Count))
system.cpu.dcache.ReadReq.avgMshrMissLatency::total 61558.659218                       # average ReadReq mshr miss latency ((Tick/Count))
system.cpu.dcache.WriteReq.hits::cpu.data      6059669                       # number of WriteReq hits (Count)
system.cpu.dcache.WriteReq.hits::total        6059669                       # number of WriteReq hits (Count)
system.cpu.dcache.WriteReq.misses::cpu.data         3356                       # number of WriteReq misses (Count)
system.cpu.dcache.WriteReq.misses::total         3356                       # number of WriteReq misses (Count)
system.cpu.dcache.WriteReq.missLatency::cpu.data    198006000                       # number of WriteReq miss ticks (Tick)
system.cpu.dcache.WriteReq.missLatency::total    198006000                       # number of WriteReq miss ticks (Tick)
system.cpu.dcache.WriteReq.accesses::cpu.data      6063025                       # number of WriteReq accesses(hits+misses) (Count)
system.cpu.dcache.WriteReq.accesses::total      6063025                       # number of WriteReq accesses(hits+misses) (Count)
system.cpu.dcache.WriteReq.missRate::cpu.data     0.000554                       # miss rate for WriteReq accesses (Ratio)
system.cpu.dcache.WriteReq.missRate::total     0.000554                       # miss rate for WriteReq accesses (Ratio)
system.cpu.dcache.WriteReq.avgMissLatency::cpu.data 59000.595948                       # average WriteReq miss latency ((Tick/Count))
system.cpu.dcache.WriteReq.avgMissLatency::total 59000.595948                       # average WriteReq miss latency ((Tick/Count))
system.cpu.dcache.WriteReq.mshrHits::cpu.data            3                       # number of WriteReq MSHR hits (Count)
system.cpu.dcache.WriteReq.mshrHits::total            3                       # number of WriteReq MSHR hits (Count)
system.cpu.dcache.WriteReq.mshrMisses::cpu.data         3353                       # number of WriteReq MSHR misses (Count)
system.cpu.dcache.WriteReq.mshrMisses::total         3353                       # number of WriteReq MSHR misses (Count)
system.cpu.dcache.WriteReq.mshrMissLatency::cpu.data    194536500                       # number of WriteReq MSHR miss ticks (Tick)
system.cpu.dcache.WriteReq.mshrMissLatency::total    194536500                       # number of WriteReq MSHR miss ticks (Tick)
system.cpu.dcache.WriteReq.mshrMissRate::cpu.data     0.000553                       # mshr miss rate for WriteReq accesses (Ratio)
system.cpu.dcache.WriteReq.mshrMissRate::total     0.000553                       # mshr miss rate for WriteReq accesses (Ratio)
system.cpu.dcache.WriteReq.avgMshrMissLatency::cpu.data 58018.640024                       # average WriteReq mshr miss latency ((Tick/Count))
system.cpu.dcache.WriteReq.avgMshrMissLatency::total 58018.640024                       # average WriteReq mshr miss latency ((Tick/Count))
system.cpu.dcache.power_state.pwrStateResidencyTicks::UNDEFINED  12615338500                       # Cumulative time (in ticks) in various power states (Tick)
system.cpu.dcache.tags.tagsInUse          2024.186750                       # Average ticks per tags in use ((Tick/Count))
system.cpu.dcache.tags.totalRefs             14560785                       # Total number of references to valid blocks. (Count)
system.cpu.dcache.tags.sampledRefs               8544                       # Sample count of references to valid blocks. (Count)
system.cpu.dcache.tags.avgRefs            1704.211728                       # Average number of references to valid blocks. ((Count/Count))
system.cpu.dcache.tags.warmupTick              145000                       # The tick when the warmup percentage was hit. (Tick)
system.cpu.dcache.tags.occupancies::cpu.data  2024.186750                       # Average occupied blocks per tick, per requestor ((Count/Tick))
system.cpu.dcache.tags.avgOccs::cpu.data     0.988372                       # Average percentage of cache occupancy ((Ratio/Tick))
system.cpu.dcache.tags.avgOccs::total        0.988372                       # Average percentage of cache occupancy ((Ratio/Tick))
system.cpu.dcache.tags.occupanciesTaskId::1024         2048                       # Occupied blocks per task id (Count)
system.cpu.dcache.tags.ageTaskId_1024::0           61                       # Occupied blocks per task id, per block age (Count)
system.cpu.dcache.tags.ageTaskId_1024::1          456                       # Occupied blocks per task id, per block age (Count)
system.cpu.dcache.tags.ageTaskId_1024::2          843                       # Occupied blocks per task id, per block age (Count)
system.cpu.dcache.tags.ageTaskId_1024::3          665                       # Occupied blocks per task id, per block age (Count)
system.cpu.dcache.tags.ageTaskId_1024::4           23                       # Occupied blocks per task id, per block age (Count)
system.cpu.dcache.tags.ratioOccsTaskId::1024            1                       # Ratio of occupied blocks and all blocks, per task id (Ratio)
system.cpu.dcache.tags.tagAccesses           29144600                       # Number of tag accesses (Count)
system.cpu.dcache.tags.dataAccesses          29144600                       # Number of data accesses (Count)
system.cpu.dcache.tags.power_state.pwrStateResidencyTicks::UNDEFINED  12615338500                       # Cumulative time (in ticks) in various power states (Tick)
system.cpu.decode.idleCycles                  7247444                       # Number of cycles decode is idle (Cycle)
system.cpu.decode.blockedCycles               4056575                       # Number of cycles decode is blocked (Cycle)
system.cpu.decode.runCycles                  11686220                       # Number of cycles decode is running (Cycle)
system.cpu.decode.unblockCycles               1376916                       # Number of cycles decode is unblocking (Cycle)
system.cpu.decode.squashCycles                 148677                       # Number of cycles decode is squashing (Cycle)
system.cpu.decode.branchResolved              5225944                       # Number of times decode resolved a branch (Count)
system.cpu.decode.branchMispred                 12803                       # Number of times decode detected a branch misprediction (Count)
system.cpu.decode.decodedInsts               84174421                       # Number of instructions handled by decode (Count)
system.cpu.decode.squashedInsts                 75107                       # Number of squashed instructions handled by decode (Count)
system.cpu.dtb_walker_cache.blockedCycles::no_mshrs            0                       # number of cycles access was blocked (Cycle)
system.cpu.dtb_walker_cache.blockedCycles::no_targets            0                       # number of cycles access was blocked (Cycle)
system.cpu.dtb_walker_cache.blockedCauses::no_mshrs            0                       # number of times access was blocked (Count)
system.cpu.dtb_walker_cache.blockedCauses::no_targets            0                       # number of times access was blocked (Count)
system.cpu.dtb_walker_cache.avgBlocked::no_mshrs          nan                       # average number of cycles each access was blocked ((Cycle/Count))
system.cpu.dtb_walker_cache.avgBlocked::no_targets          nan                       # average number of cycles each access was blocked ((Cycle/Count))
system.cpu.dtb_walker_cache.replacements            0                       # number of replacements (Count)
system.cpu.dtb_walker_cache.power_state.pwrStateResidencyTicks::UNDEFINED  12615338500                       # Cumulative time (in ticks) in various power states (Tick)
system.cpu.dtb_walker_cache.tags.tagsInUse            0                       # Average ticks per tags in use ((Tick/Count))
system.cpu.dtb_walker_cache.tags.totalRefs            0                       # Total number of references to valid blocks. (Count)
system.cpu.dtb_walker_cache.tags.sampledRefs            0                       # Sample count of references to valid blocks. (Count)
system.cpu.dtb_walker_cache.tags.avgRefs          nan                       # Average number of references to valid blocks. ((Count/Count))
system.cpu.dtb_walker_cache.tags.warmupTick            0                       # The tick when the warmup percentage was hit. (Tick)
system.cpu.dtb_walker_cache.tags.tagAccesses            0                       # Number of tag accesses (Count)
system.cpu.dtb_walker_cache.tags.dataAccesses            0                       # Number of data accesses (Count)
system.cpu.dtb_walker_cache.tags.power_state.pwrStateResidencyTicks::UNDEFINED  12615338500                       # Cumulative time (in ticks) in various power states (Tick)
system.cpu.fetch.icacheStallCycles            8028300                       # Number of cycles fetch is stalled on an Icache miss (Cycle)
system.cpu.fetch.insts                       44441266                       # Number of instructions fetch has processed (Count)
system.cpu.fetch.branches                     9484147                       # Number of branches that fetch encountered (Count)
system.cpu.fetch.predictedBranches            6125473                       # Number of branches that fetch has predicted taken (Count)
system.cpu.fetch.cycles                      16324200                       # Number of cycles fetch has run and was not squashing or blocked (Cycle)
system.cpu.fetch.squashCycles                  322934                       # Number of cycles fetch has spent squashing (Cycle)
system.cpu.fetch.miscStallCycles                  182                       # Number of cycles fetch has spent waiting on interrupts, or bad addresses, or out of MSHRs (Cycle)
system.cpu.fetch.pendingTrapStallCycles          1060                       # Number of stall cycles due to pending traps (Cycle)
system.cpu.fetch.pendingQuiesceStallCycles            2                       # Number of stall cycles due to pending quiesce instructions (Cycle)
system.cpu.fetch.icacheWaitRetryStallCycles          621                       # Number of stall cycles due to full MSHR (Cycle)
system.cpu.fetch.cacheLines                   6332105                       # Number of cache lines fetched (Count)
system.cpu.fetch.icacheSquashes                 28383                       # Number of outstanding Icache misses that were squashed (Count)
system.cpu.fetch.nisnDist::samples           24515832                       # Number of instructions fetched each cycle (Total) (Count)
system.cpu.fetch.nisnDist::mean              3.513744                       # Number of instructions fetched each cycle (Total) (Count)
system.cpu.fetch.nisnDist::stdev             3.515395                       # Number of instructions fetched each cycle (Total) (Count)
system.cpu.fetch.nisnDist::underflows               0      0.00%      0.00% # Number of instructions fetched each cycle (Total) (Count)
system.cpu.fetch.nisnDist::0                 10373940     42.32%     42.32% # Number of instructions fetched each cycle (Total) (Count)
system.cpu.fetch.nisnDist::1                   805106      3.28%     45.60% # Number of instructions fetched each cycle (Total) (Count)
system.cpu.fetch.nisnDist::2                   901656      3.68%     49.28% # Number of instructions fetched each cycle (Total) (Count)
system.cpu.fetch.nisnDist::3                   918503      3.75%     53.02% # Number of instructions fetched each cycle (Total) (Count)
system.cpu.fetch.nisnDist::4                  1516601      6.19%     59.21% # Number of instructions fetched each cycle (Total) (Count)
system.cpu.fetch.nisnDist::5                  1138779      4.65%     63.86% # Number of instructions fetched each cycle (Total) (Count)
system.cpu.fetch.nisnDist::6                   596669      2.43%     66.29% # Number of instructions fetched each cycle (Total) (Count)
system.cpu.fetch.nisnDist::7                   678503      2.77%     69.06% # Number of instructions fetched each cycle (Total) (Count)
system.cpu.fetch.nisnDist::8                  7586075     30.94%    100.00% # Number of instructions fetched each cycle (Total) (Count)
system.cpu.fetch.nisnDist::overflows                0      0.00%    100.00% # Number of instructions fetched each cycle (Total) (Count)
system.cpu.fetch.nisnDist::min_value                0                       # Number of instructions fetched each cycle (Total) (Count)
system.cpu.fetch.nisnDist::max_value                8                       # Number of instructions fetched each cycle (Total) (Count)
system.cpu.fetch.nisnDist::total             24515832                       # Number of instructions fetched each cycle (Total) (Count)
system.cpu.fetch.branchRate                  0.375897                       # Number of branch fetches per cycle (Ratio)
system.cpu.fetch.rate                        1.761398                       # Number of inst fetches per cycle ((Count/Cycle))
system.cpu.icache.demandHits::cpu.inst        6273487                       # number of demand (read+write) hits (Count)
system.cpu.icache.demandHits::total           6273487                       # number of demand (read+write) hits (Count)
system.cpu.icache.overallHits::cpu.inst       6273487                       # number of overall hits (Count)
system.cpu.icache.overallHits::total          6273487                       # number of overall hits (Count)
system.cpu.icache.demandMisses::cpu.inst        58618                       # number of demand (read+write) misses (Count)
system.cpu.icache.demandMisses::total           58618                       # number of demand (read+write) misses (Count)
system.cpu.icache.overallMisses::cpu.inst        58618                       # number of overall misses (Count)
system.cpu.icache.overallMisses::total          58618                       # number of overall misses (Count)
system.cpu.icache.demandMissLatency::cpu.inst   1331900998                       # number of demand (read+write) miss ticks (Tick)
system.cpu.icache.demandMissLatency::total   1331900998                       # number of demand (read+write) miss ticks (Tick)
system.cpu.icache.overallMissLatency::cpu.inst   1331900998                       # number of overall miss ticks (Tick)
system.cpu.icache.overallMissLatency::total   1331900998                       # number of overall miss ticks (Tick)
system.cpu.icache.demandAccesses::cpu.inst      6332105                       # number of demand (read+write) accesses (Count)
system.cpu.icache.demandAccesses::total       6332105                       # number of demand (read+write) accesses (Count)
system.cpu.icache.overallAccesses::cpu.inst      6332105                       # number of overall (read+write) accesses (Count)
system.cpu.icache.overallAccesses::total      6332105                       # number of overall (read+write) accesses (Count)
system.cpu.icache.demandMissRate::cpu.inst     0.009257                       # miss rate for demand accesses (Ratio)
system.cpu.icache.demandMissRate::total      0.009257                       # miss rate for demand accesses (Ratio)
system.cpu.icache.overallMissRate::cpu.inst     0.009257                       # miss rate for overall accesses (Ratio)
system.cpu.icache.overallMissRate::total     0.009257                       # miss rate for overall accesses (Ratio)
system.cpu.icache.demandAvgMissLatency::cpu.inst 22721.706609                       # average overall miss latency ((Cycle/Count))
system.cpu.icache.demandAvgMissLatency::total 22721.706609                       # average overall miss latency ((Cycle/Count))
system.cpu.icache.overallAvgMissLatency::cpu.inst 22721.706609                       # average overall miss latency ((Cycle/Count))
system.cpu.icache.overallAvgMissLatency::total 22721.706609                       # average overall miss latency ((Cycle/Count))
system.cpu.icache.blockedCycles::no_mshrs         1154                       # number of cycles access was blocked (Cycle)
system.cpu.icache.blockedCycles::no_targets            0                       # number of cycles access was blocked (Cycle)
system.cpu.icache.blockedCauses::no_mshrs            9                       # number of times access was blocked (Count)
system.cpu.icache.blockedCauses::no_targets            0                       # number of times access was blocked (Count)
system.cpu.icache.avgBlocked::no_mshrs     128.222222                       # average number of cycles each access was blocked ((Cycle/Count))
system.cpu.icache.avgBlocked::no_targets          nan                       # average number of cycles each access was blocked ((Cycle/Count))
system.cpu.icache.writebacks::writebacks        53832                       # number of writebacks (Count)
system.cpu.icache.writebacks::total             53832                       # number of writebacks (Count)
system.cpu.icache.demandMshrHits::cpu.inst         4287                       # number of demand (read+write) MSHR hits (Count)
system.cpu.icache.demandMshrHits::total          4287                       # number of demand (read+write) MSHR hits (Count)
system.cpu.icache.overallMshrHits::cpu.inst         4287                       # number of overall MSHR hits (Count)
system.cpu.icache.overallMshrHits::total         4287                       # number of overall MSHR hits (Count)
system.cpu.icache.demandMshrMisses::cpu.inst        54331                       # number of demand (read+write) MSHR misses (Count)
system.cpu.icache.demandMshrMisses::total        54331                       # number of demand (read+write) MSHR misses (Count)
system.cpu.icache.overallMshrMisses::cpu.inst        54331                       # number of overall MSHR misses (Count)
system.cpu.icache.overallMshrMisses::total        54331                       # number of overall MSHR misses (Count)
system.cpu.icache.demandMshrMissLatency::cpu.inst   1233720998                       # number of demand (read+write) MSHR miss ticks (Tick)
system.cpu.icache.demandMshrMissLatency::total   1233720998                       # number of demand (read+write) MSHR miss ticks (Tick)
system.cpu.icache.overallMshrMissLatency::cpu.inst   1233720998                       # number of overall MSHR miss ticks (Tick)
system.cpu.icache.overallMshrMissLatency::total   1233720998                       # number of overall MSHR miss ticks (Tick)
system.cpu.icache.demandMshrMissRate::cpu.inst     0.008580                       # mshr miss ratio for demand accesses (Ratio)
system.cpu.icache.demandMshrMissRate::total     0.008580                       # mshr miss ratio for demand accesses (Ratio)
system.cpu.icache.overallMshrMissRate::cpu.inst     0.008580                       # mshr miss ratio for overall accesses (Ratio)
system.cpu.icache.overallMshrMissRate::total     0.008580                       # mshr miss ratio for overall accesses (Ratio)
system.cpu.icache.demandAvgMshrMissLatency::cpu.inst 22707.496604                       # average overall mshr miss latency ((Cycle/Count))
system.cpu.icache.demandAvgMshrMissLatency::total 22707.496604                       # average overall mshr miss latency ((Cycle/Count))
system.cpu.icache.overallAvgMshrMissLatency::cpu.inst 22707.496604                       # average overall mshr miss latency ((Cycle/Count))
system.cpu.icache.overallAvgMshrMissLatency::total 22707.496604                       # average overall mshr miss latency ((Cycle/Count))
system.cpu.icache.replacements                  53832                       # number of replacements (Count)
system.cpu.icache.ReadReq.hits::cpu.inst      6273487                       # number of ReadReq hits (Count)
system.cpu.icache.ReadReq.hits::total         6273487                       # number of ReadReq hits (Count)
system.cpu.icache.ReadReq.misses::cpu.inst        58618                       # number of ReadReq misses (Count)
system.cpu.icache.ReadReq.misses::total         58618                       # number of ReadReq misses (Count)
system.cpu.icache.ReadReq.missLatency::cpu.inst   1331900998                       # number of ReadReq miss ticks (Tick)
system.cpu.icache.ReadReq.missLatency::total   1331900998                       # number of ReadReq miss ticks (Tick)
system.cpu.icache.ReadReq.accesses::cpu.inst      6332105                       # number of ReadReq accesses(hits+misses) (Count)
system.cpu.icache.ReadReq.accesses::total      6332105                       # number of ReadReq accesses(hits+misses) (Count)
system.cpu.icache.ReadReq.missRate::cpu.inst     0.009257                       # miss rate for ReadReq accesses (Ratio)
system.cpu.icache.ReadReq.missRate::total     0.009257                       # miss rate for ReadReq accesses (Ratio)
system.cpu.icache.ReadReq.avgMissLatency::cpu.inst 22721.706609                       # average ReadReq miss latency ((Tick/Count))
system.cpu.icache.ReadReq.avgMissLatency::total 22721.706609                       # average ReadReq miss latency ((Tick/Count))
system.cpu.icache.ReadReq.mshrHits::cpu.inst         4287                       # number of ReadReq MSHR hits (Count)
system.cpu.icache.ReadReq.mshrHits::total         4287                       # number of ReadReq MSHR hits (Count)
system.cpu.icache.ReadReq.mshrMisses::cpu.inst        54331                       # number of ReadReq MSHR misses (Count)
system.cpu.icache.ReadReq.mshrMisses::total        54331                       # number of ReadReq MSHR misses (Count)
system.cpu.icache.ReadReq.mshrMissLatency::cpu.inst   1233720998                       # number of ReadReq MSHR miss ticks (Tick)
system.cpu.icache.ReadReq.mshrMissLatency::total   1233720998                       # number of ReadReq MSHR miss ticks (Tick)
system.cpu.icache.ReadReq.mshrMissRate::cpu.inst     0.008580                       # mshr miss rate for ReadReq accesses (Ratio)
system.cpu.icache.ReadReq.mshrMissRate::total     0.008580                       # mshr miss rate for ReadReq accesses (Ratio)
system.cpu.icache.ReadReq.avgMshrMissLatency::cpu.inst 22707.496604                       # average ReadReq mshr miss latency ((Tick/Count))
system.cpu.icache.ReadReq.avgMshrMissLatency::total 22707.496604                       # average ReadReq mshr miss latency ((Tick/Count))
system.cpu.icache.power_state.pwrStateResidencyTicks::UNDEFINED  12615338500                       # Cumulative time (in ticks) in various power states (Tick)
system.cpu.icache.tags.tagsInUse           460.758725                       # Average ticks per tags in use ((Tick/Count))
system.cpu.icache.tags.totalRefs              6327818                       # Total number of references to valid blocks. (Count)
system.cpu.icache.tags.sampledRefs              54331                       # Sample count of references to valid blocks. (Count)
system.cpu.icache.tags.avgRefs             116.467910                       # Average number of references to valid blocks. ((Count/Count))
system.cpu.icache.tags.warmupTick               77000                       # The tick when the warmup percentage was hit. (Tick)
system.cpu.icache.tags.occupancies::cpu.inst   460.758725                       # Average occupied blocks per tick, per requestor ((Count/Tick))
system.cpu.icache.tags.avgOccs::cpu.inst     0.899919                       # Average percentage of cache occupancy ((Ratio/Tick))
system.cpu.icache.tags.avgOccs::total        0.899919                       # Average percentage of cache occupancy ((Ratio/Tick))
system.cpu.icache.tags.occupanciesTaskId::1024          499                       # Occupied blocks per task id (Count)
system.cpu.icache.tags.ageTaskId_1024::0          116                       # Occupied blocks per task id, per block age (Count)
system.cpu.icache.tags.ageTaskId_1024::1           26                       # Occupied blocks per task id, per block age (Count)
system.cpu.icache.tags.ageTaskId_1024::3          188                       # Occupied blocks per task id, per block age (Count)
system.cpu.icache.tags.ageTaskId_1024::4          169                       # Occupied blocks per task id, per block age (Count)
system.cpu.icache.tags.ratioOccsTaskId::1024     0.974609                       # Ratio of occupied blocks and all blocks, per task id (Ratio)
system.cpu.icache.tags.tagAccesses           12718541                       # Number of tag accesses (Count)
system.cpu.icache.tags.dataAccesses          12718541                       # Number of data accesses (Count)
system.cpu.icache.tags.power_state.pwrStateResidencyTicks::UNDEFINED  12615338500                       # Cumulative time (in ticks) in various power states (Tick)
system.cpu.iew.idleCycles                           0                       # Number of cycles IEW is idle (Cycle)
system.cpu.iew.squashCycles                    148677                       # Number of cycles IEW is squashing (Cycle)
system.cpu.iew.blockCycles                     726848                       # Number of cycles IEW is blocking (Cycle)
system.cpu.iew.unblockCycles                    96070                       # Number of cycles IEW is unblocking (Cycle)
system.cpu.iew.dispatchedInsts               82629930                       # Number of instructions dispatched to IQ (Count)
system.cpu.iew.dispSquashedInsts                26529                       # Number of squashed instructions skipped by dispatch (Count)
system.cpu.iew.dispLoadInsts                 11563465                       # Number of dispatched load instructions (Count)
system.cpu.iew.dispStoreInsts                 6393982                       # Number of dispatched store instructions (Count)
system.cpu.iew.dispNonSpecInsts                    20                       # Number of dispatched non-speculative instructions (Count)
system.cpu.iew.iqFullEvents                      3192                       # Number of times the IQ has become full, causing a stall (Count)
system.cpu.iew.lsqFullEvents                    92210                       # Number of times the LSQ has become full, causing a stall (Count)
system.cpu.iew.memOrderViolationEvents            634                       # Number of memory order violations (Count)
system.cpu.iew.predictedTakenIncorrect          76007                       # Number of branches that were predicted taken incorrectly (Count)
system.cpu.iew.predictedNotTakenIncorrect        90315                       # Number of branches that were predicted not taken incorrectly (Count)
system.cpu.iew.branchMispredicts               166322                       # Number of branch mispredicts detected at execute (Count)
system.cpu.iew.instsToCommit                 80568937                       # Cumulative count of insts sent to commit (Count)
system.cpu.iew.writebackCount                80531173                       # Cumulative count of insts written-back (Count)
system.cpu.iew.producerInst                  56975269                       # Number of instructions producing a value (Count)
system.cpu.iew.consumerInst                  96077038                       # Number of instructions consuming a value (Count)
system.cpu.iew.wbRate                        3.191796                       # Insts written-back per cycle ((Count/Cycle))
system.cpu.iew.wbFanout                      0.593017                       # Average fanout of values written-back ((Count/Count))
system.cpu.interrupts.clk_domain.clock           8000                       # Clock period in ticks (Tick)
system.cpu.itb_walker_cache.blockedCycles::no_mshrs            0                       # number of cycles access was blocked (Cycle)
system.cpu.itb_walker_cache.blockedCycles::no_targets            0                       # number of cycles access was blocked (Cycle)
system.cpu.itb_walker_cache.blockedCauses::no_mshrs            0                       # number of times access was blocked (Count)
system.cpu.itb_walker_cache.blockedCauses::no_targets            0                       # number of times access was blocked (Count)
system.cpu.itb_walker_cache.avgBlocked::no_mshrs          nan                       # average number of cycles each access was blocked ((Cycle/Count))
system.cpu.itb_walker_cache.avgBlocked::no_targets          nan                       # average number of cycles each access was blocked ((Cycle/Count))
system.cpu.itb_walker_cache.replacements            0                       # number of replacements (Count)
system.cpu.itb_walker_cache.power_state.pwrStateResidencyTicks::UNDEFINED  12615338500                       # Cumulative time (in ticks) in various power states (Tick)
system.cpu.itb_walker_cache.tags.tagsInUse            0                       # Average ticks per tags in use ((Tick/Count))
system.cpu.itb_walker_cache.tags.totalRefs            0                       # Total number of references to valid blocks. (Count)
system.cpu.itb_walker_cache.tags.sampledRefs            0                       # Sample count of references to valid blocks. (Count)
system.cpu.itb_walker_cache.tags.avgRefs          nan                       # Average number of references to valid blocks. ((Count/Count))
system.cpu.itb_walker_cache.tags.warmupTick            0                       # The tick when the warmup percentage was hit. (Tick)
system.cpu.itb_walker_cache.tags.tagAccesses            0                       # Number of tag accesses (Count)
system.cpu.itb_walker_cache.tags.dataAccesses            0                       # Number of data accesses (Count)
system.cpu.itb_walker_cache.tags.power_state.pwrStateResidencyTicks::UNDEFINED  12615338500                       # Cumulative time (in ticks) in various power states (Tick)
system.cpu.lsq0.forwLoads                     2965050                       # Number of loads that had data forwarded from stores (Count)
system.cpu.lsq0.squashedLoads                  445589                       # Number of loads squashed (Count)
system.cpu.lsq0.ignoredResponses                  110                       # Number of memory responses ignored because the instruction is squashed (Count)
system.cpu.lsq0.memOrderViolation                 634                       # Number of memory ordering violations (Count)
system.cpu.lsq0.squashedStores                 330958                       # Number of stores squashed (Count)
system.cpu.lsq0.rescheduledLoads                    1                       # Number of loads that were rescheduled (Count)
system.cpu.lsq0.blockedByCache                     18                       # Number of times an access to memory failed due to the cache being blocked (Count)
system.cpu.lsq0.loadToUse::samples           11117876                       # Distribution of cycle latency between the first time a load is issued and its completion (Unspecified)
system.cpu.lsq0.loadToUse::mean              3.081003                       # Distribution of cycle latency between the first time a load is issued and its completion (Unspecified)
system.cpu.lsq0.loadToUse::stdev             4.780265                       # Distribution of cycle latency between the first time a load is issued and its completion (Unspecified)
system.cpu.lsq0.loadToUse::0-9               11105761     99.89%     99.89% # Distribution of cycle latency between the first time a load is issued and its completion (Unspecified)
system.cpu.lsq0.loadToUse::10-19                   51      0.00%     99.89% # Distribution of cycle latency between the first time a load is issued and its completion (Unspecified)
system.cpu.lsq0.loadToUse::20-29                    7      0.00%     99.89% # Distribution of cycle latency between the first time a load is issued and its completion (Unspecified)
system.cpu.lsq0.loadToUse::30-39                   12      0.00%     99.89% # Distribution of cycle latency between the first time a load is issued and its completion (Unspecified)
system.cpu.lsq0.loadToUse::40-49                   16      0.00%     99.89% # Distribution of cycle latency between the first time a load is issued and its completion (Unspecified)
system.cpu.lsq0.loadToUse::50-59                    5      0.00%     99.89% # Distribution of cycle latency between the first time a load is issued and its completion (Unspecified)
[...]
system.mem_ctrls.dram.bwWrite::total         28364201                       # Write bandwidth from this memory ((Byte/Second))
system.mem_ctrls.dram.bwTotal::writebacks     28364201                       # Total bandwidth to/from this memory ((Byte/Second))
system.mem_ctrls.dram.bwTotal::cpu.inst     275631447                       # Total bandwidth to/from this memory ((Byte/Second))
system.mem_ctrls.dram.bwTotal::cpu.data      43345329                       # Total bandwidth to/from this memory ((Byte/Second))
system.mem_ctrls.dram.bwTotal::total        347340977                       # Total bandwidth to/from this memory ((Byte/Second))
system.mem_ctrls.dram.readBursts                 9683                       # Number of DRAM read bursts (Count)
system.mem_ctrls.dram.writeBursts                6367                       # Number of DRAM write bursts (Count)
system.mem_ctrls.dram.perBankRdBursts::0          736                       # Per bank write bursts (Count)
system.mem_ctrls.dram.perBankRdBursts::1          621                       # Per bank write bursts (Count)
system.mem_ctrls.dram.perBankRdBursts::2          612                       # Per bank write bursts (Count)
system.mem_ctrls.dram.perBankRdBursts::3          650                       # Per bank write bursts (Count)
system.mem_ctrls.dram.perBankRdBursts::4          596                       # Per bank write bursts (Count)
system.mem_ctrls.dram.perBankRdBursts::5          660                       # Per bank write bursts (Count)
system.mem_ctrls.dram.perBankRdBursts::6          691                       # Per bank write bursts (Count)
system.mem_ctrls.dram.perBankRdBursts::7          757                       # Per bank write bursts (Count)
system.mem_ctrls.dram.perBankRdBursts::8          832                       # Per bank write bursts (Count)
system.mem_ctrls.dram.perBankRdBursts::9          492                       # Per bank write bursts (Count)
system.mem_ctrls.dram.perBankRdBursts::10          411                       # Per bank write bursts (Count)
system.mem_ctrls.dram.perBankRdBursts::11          410                       # Per bank write bursts (Count)
system.mem_ctrls.dram.perBankRdBursts::12          531                       # Per bank write bursts (Count)
system.mem_ctrls.dram.perBankRdBursts::13          582                       # Per bank write bursts (Count)
system.mem_ctrls.dram.perBankRdBursts::14          545                       # Per bank write bursts (Count)
system.mem_ctrls.dram.perBankRdBursts::15          557                       # Per bank write bursts (Count)
system.mem_ctrls.dram.perBankWrBursts::0          489                       # Per bank write bursts (Count)
system.mem_ctrls.dram.perBankWrBursts::1          448                       # Per bank write bursts (Count)
system.mem_ctrls.dram.perBankWrBursts::2          375                       # Per bank write bursts (Count)
system.mem_ctrls.dram.perBankWrBursts::3          333                       # Per bank write bursts (Count)
system.mem_ctrls.dram.perBankWrBursts::4          438                       # Per bank write bursts (Count)
system.mem_ctrls.dram.perBankWrBursts::5          401                       # Per bank write bursts (Count)
system.mem_ctrls.dram.perBankWrBursts::6          394                       # Per bank write bursts (Count)
system.mem_ctrls.dram.perBankWrBursts::7          449                       # Per bank write bursts (Count)
system.mem_ctrls.dram.perBankWrBursts::8          433                       # Per bank write bursts (Count)
system.mem_ctrls.dram.perBankWrBursts::9          435                       # Per bank write bursts (Count)
system.mem_ctrls.dram.perBankWrBursts::10          312                       # Per bank write bursts (Count)
system.mem_ctrls.dram.perBankWrBursts::11          345                       # Per bank write bursts (Count)
system.mem_ctrls.dram.perBankWrBursts::12          308                       # Per bank write bursts (Count)
system.mem_ctrls.dram.perBankWrBursts::13          430                       # Per bank write bursts (Count)
system.mem_ctrls.dram.perBankWrBursts::14          366                       # Per bank write bursts (Count)
system.mem_ctrls.dram.perBankWrBursts::15          411                       # Per bank write bursts (Count)
system.mem_ctrls.dram.totQLat               102246000                       # Total ticks spent queuing (Tick)
system.mem_ctrls.dram.totBusLat              48415000                       # Total ticks spent in databus transfers (Tick)
system.mem_ctrls.dram.totMemAccLat          283802250                       # Total ticks spent from burst creation until serviced by the DRAM (Tick)
system.mem_ctrls.dram.avgQLat                10559.33                       # Average queueing delay per DRAM burst ((Tick/Count))
system.mem_ctrls.dram.avgBusLat               5000.00                       # Average bus latency per DRAM burst ((Tick/Count))
system.mem_ctrls.dram.avgMemAccLat           29309.33                       # Average memory access latency per DRAM burst ((Tick/Count))
system.mem_ctrls.dram.readRowHits                7313                       # Number of row buffer hits during reads (Count)
system.mem_ctrls.dram.writeRowHits               5300                       # Number of row buffer hits during writes (Count)
system.mem_ctrls.dram.readRowHitRate            75.52                       # Row buffer hit rate for reads (Ratio)
system.mem_ctrls.dram.writeRowHitRate           83.24                       # Row buffer hit rate for writes (Ratio)
system.mem_ctrls.dram.bytesPerActivate::samples         3432                       # Bytes accessed per row activation (Byte)
system.mem_ctrls.dram.bytesPerActivate::mean   298.946387                       # Bytes accessed per row activation (Byte)
system.mem_ctrls.dram.bytesPerActivate::gmean   203.286678                       # Bytes accessed per row activation (Byte)
system.mem_ctrls.dram.bytesPerActivate::stdev   282.956403                       # Bytes accessed per row activation (Byte)
system.mem_ctrls.dram.bytesPerActivate::0-127          753     21.94%     21.94% # Bytes accessed per row activation (Byte)
system.mem_ctrls.dram.bytesPerActivate::128-255         1183     34.47%     56.41% # Bytes accessed per row activation (Byte)
system.mem_ctrls.dram.bytesPerActivate::256-383          605     17.63%     74.04% # Bytes accessed per row activation (Byte)
system.mem_ctrls.dram.bytesPerActivate::384-511          317      9.24%     83.28% # Bytes accessed per row activation (Byte)
system.mem_ctrls.dram.bytesPerActivate::512-639          116      3.38%     86.66% # Bytes accessed per row activation (Byte)
system.mem_ctrls.dram.bytesPerActivate::640-767           63      1.84%     88.49% # Bytes accessed per row activation (Byte)
system.mem_ctrls.dram.bytesPerActivate::768-895           57      1.66%     90.15% # Bytes accessed per row activation (Byte)
system.mem_ctrls.dram.bytesPerActivate::896-1023           45      1.31%     91.46% # Bytes accessed per row activation (Byte)
system.mem_ctrls.dram.bytesPerActivate::1024-1151          293      8.54%    100.00% # Bytes accessed per row activation (Byte)
system.mem_ctrls.dram.bytesPerActivate::total         3432                       # Bytes accessed per row activation (Byte)
system.mem_ctrls.dram.bytesRead                619712                       # Total bytes read (Byte)
system.mem_ctrls.dram.bytesWritten             407488                       # Total bytes written (Byte)
system.mem_ctrls.dram.avgRdBW               49.123692                       # Average DRAM read bandwidth in MiBytes/s ((Byte/Second))
system.mem_ctrls.dram.avgWrBW               32.300996                       # Average DRAM write bandwidth in MiBytes/s ((Byte/Second))
system.mem_ctrls.dram.peakBW                 12800.00                       # Theoretical peak bandwidth in MiByte/s ((Byte/Second))
system.mem_ctrls.dram.busUtil                    0.64                       # Data bus utilization in percentage (Ratio)
system.mem_ctrls.dram.busUtilRead                0.38                       # Data bus utilization in percentage for reads (Ratio)
system.mem_ctrls.dram.busUtilWrite               0.25                       # Data bus utilization in percentage for writes (Ratio)
system.mem_ctrls.dram.pageHitRate               78.59                       # Row buffer hit rate, read and write combined (Ratio)
system.mem_ctrls.dram.power_state.pwrStateResidencyTicks::UNDEFINED  12615338500                       # Cumulative time (in ticks) in various power states (Tick)
system.mem_ctrls.dram.rank0.actEnergy        12780600                       # Energy for activate commands per rank (pJ) (Joule)
system.mem_ctrls.dram.rank0.preEnergy         6781665                       # Energy for precharge commands per rank (pJ) (Joule)
system.mem_ctrls.dram.rank0.readEnergy       38006220                       # Energy for read commands per rank (pJ) (Joule)
system.mem_ctrls.dram.rank0.writeEnergy      17366940                       # Energy for write commands per rank (pJ) (Joule)
system.mem_ctrls.dram.rank0.refreshEnergy 995716800.000000                       # Energy for refresh commands per rank (pJ) (Joule)
system.mem_ctrls.dram.rank0.actBackEnergy   2329515900                       # Energy for active background per rank (pJ) (Joule)
system.mem_ctrls.dram.rank0.preBackEnergy   2882592480                       # Energy for precharge background per rank (pJ) (Joule)
system.mem_ctrls.dram.rank0.actPowerDownEnergy            0                       # Energy for active power-down per rank (pJ) (Joule)
system.mem_ctrls.dram.rank0.prePowerDownEnergy            0                       # Energy for precharge power-down per rank (pJ) (Joule)
system.mem_ctrls.dram.rank0.selfRefreshEnergy            0                       # Energy for self refresh per rank (pJ) (Joule)
system.mem_ctrls.dram.rank0.totalEnergy    6282760605                       # Total energy per rank (pJ) (Joule)
system.mem_ctrls.dram.rank0.averagePower   498.025527                       # Core power per rank (mW) (Watt)
system.mem_ctrls.dram.rank0.totalIdleTime            0                       # Total Idle time Per DRAM Rank (Tick)
system.mem_ctrls.dram.rank0.pwrStateTime::IDLE   7470940500                       # Time in different power states (Tick)
system.mem_ctrls.dram.rank0.pwrStateTime::REF    421200000                       # Time in different power states (Tick)
system.mem_ctrls.dram.rank0.pwrStateTime::SREF            0                       # Time in different power states (Tick)
system.mem_ctrls.dram.rank0.pwrStateTime::PRE_PDN            0                       # Time in different power states (Tick)
system.mem_ctrls.dram.rank0.pwrStateTime::ACT   4723198000                       # Time in different power states (Tick)
system.mem_ctrls.dram.rank0.pwrStateTime::ACT_PDN            0                       # Time in different power states (Tick)
system.mem_ctrls.dram.rank1.actEnergy        11759580                       # Energy for activate commands per rank (pJ) (Joule)
system.mem_ctrls.dram.rank1.preEnergy         6242775                       # Energy for precharge commands per rank (pJ) (Joule)
system.mem_ctrls.dram.rank1.readEnergy       31130400                       # Energy for read commands per rank (pJ) (Joule)
system.mem_ctrls.dram.rank1.writeEnergy      15868800                       # Energy for write commands per rank (pJ) (Joule)
system.mem_ctrls.dram.rank1.refreshEnergy 995716800.000000                       # Energy for refresh commands per rank (pJ) (Joule)
system.mem_ctrls.dram.rank1.actBackEnergy   2187170940                       # Energy for active background per rank (pJ) (Joule)
system.mem_ctrls.dram.rank1.preBackEnergy   3002461920                       # Energy for precharge background per rank (pJ) (Joule)
system.mem_ctrls.dram.rank1.actPowerDownEnergy            0                       # Energy for active power-down per rank (pJ) (Joule)
system.mem_ctrls.dram.rank1.prePowerDownEnergy            0                       # Energy for precharge power-down per rank (pJ) (Joule)
system.mem_ctrls.dram.rank1.selfRefreshEnergy            0                       # Energy for self refresh per rank (pJ) (Joule)
system.mem_ctrls.dram.rank1.totalEnergy    6250351215                       # Total energy per rank (pJ) (Joule)
system.mem_ctrls.dram.rank1.averagePower   495.456481                       # Core power per rank (mW) (Watt)
system.mem_ctrls.dram.rank1.totalIdleTime            0                       # Total Idle time Per DRAM Rank (Tick)
system.mem_ctrls.dram.rank1.pwrStateTime::IDLE   7784166250                       # Time in different power states (Tick)
system.mem_ctrls.dram.rank1.pwrStateTime::REF    421200000                       # Time in different power states (Tick)
system.mem_ctrls.dram.rank1.pwrStateTime::SREF            0                       # Time in different power states (Tick)
system.mem_ctrls.dram.rank1.pwrStateTime::PRE_PDN            0                       # Time in different power states (Tick)
system.mem_ctrls.dram.rank1.pwrStateTime::ACT   4409972250                       # Time in different power states (Tick)
system.mem_ctrls.dram.rank1.pwrStateTime::ACT_PDN            0                       # Time in different power states (Tick)
system.mem_ctrls.power_state.pwrStateResidencyTicks::UNDEFINED  12615338500                       # Cumulative time (in ticks) in various power states (Tick)
system.membus.transDist::ReadResp               59522                       # Transaction distribution (Count)
system.membus.transDist::WritebackDirty          5591                       # Transaction distribution (Count)
system.membus.transDist::WritebackClean         53832                       # Transaction distribution (Count)
system.membus.transDist::CleanEvict               905                       # Transaction distribution (Count)
system.membus.transDist::ReadExReq               3353                       # Transaction distribution (Count)
system.membus.transDist::ReadExResp              3353                       # Transaction distribution (Count)
system.membus.transDist::ReadCleanReq           54331                       # Transaction distribution (Count)
system.membus.transDist::ReadSharedReq           5191                       # Transaction distribution (Count)
system.membus.pktCount_system.cpu.icache.mem_side_port::system.mem_ctrls.port       162494                       # Packet count per connected requestor and responder (Count)
system.membus.pktCount_system.cpu.icache.mem_side_port::total       162494                       # Packet count per connected requestor and responder (Count)
system.membus.pktCount_system.cpu.dcache.mem_side_port::system.mem_ctrls.port        23584                       # Packet count per connected requestor and responder (Count)
system.membus.pktCount_system.cpu.dcache.mem_side_port::total        23584                       # Packet count per connected requestor and responder (Count)
system.membus.pktCount::total                  186078                       # Packet count per connected requestor and responder (Count)
system.membus.pktSize_system.cpu.icache.mem_side_port::system.mem_ctrls.port      6922432                       # Cumulative packet size per connected requestor and responder (Byte)
system.membus.pktSize_system.cpu.icache.mem_side_port::total      6922432                       # Cumulative packet size per connected requestor and responder (Byte)
system.membus.pktSize_system.cpu.dcache.mem_side_port::system.mem_ctrls.port       904640                       # Cumulative packet size per connected requestor and responder (Byte)
system.membus.pktSize_system.cpu.dcache.mem_side_port::total       904640                       # Cumulative packet size per connected requestor and responder (Byte)
system.membus.pktSize::total                  7827072                       # Cumulative packet size per connected requestor and responder (Byte)
system.membus.snoops                                0                       # Total snoops (Count)
system.membus.snoopTraffic                          0                       # Total snoop traffic (Byte)
system.membus.snoopFanout::samples              62875                       # Request fanout histogram (Count)
system.membus.snoopFanout::mean              0.000032                       # Request fanout histogram (Count)
system.membus.snoopFanout::stdev             0.005640                       # Request fanout histogram (Count)
system.membus.snoopFanout::underflows               0      0.00%      0.00% # Request fanout histogram (Count)
system.membus.snoopFanout::0                    62873    100.00%    100.00% # Request fanout histogram (Count)
system.membus.snoopFanout::1                        2      0.00%    100.00% # Request fanout histogram (Count)
system.membus.snoopFanout::2                        0      0.00%    100.00% # Request fanout histogram (Count)
system.membus.snoopFanout::3                        0      0.00%    100.00% # Request fanout histogram (Count)
system.membus.snoopFanout::4                        0      0.00%    100.00% # Request fanout histogram (Count)
system.membus.snoopFanout::overflows                0      0.00%    100.00% # Request fanout histogram (Count)
system.membus.snoopFanout::min_value                0                       # Request fanout histogram (Count)
system.membus.snoopFanout::max_value                1                       # Request fanout histogram (Count)
system.membus.snoopFanout::total                62875                       # Request fanout histogram (Count)
system.membus.power_state.pwrStateResidencyTicks::UNDEFINED  12615338500                       # Cumulative time (in ticks) in various power states (Tick)
system.membus.reqLayer2.occupancy           371043500                       # Layer occupancy (ticks) (Tick)
system.membus.reqLayer2.utilization               0.0                       # Layer utilization (Ratio)
system.membus.respLayer1.occupancy          272032000                       # Layer occupancy (ticks) (Tick)
system.membus.respLayer1.utilization              0.0                       # Layer utilization (Ratio)
system.membus.respLayer2.occupancy           45416500                       # Layer occupancy (ticks) (Tick)
system.membus.respLayer2.utilization              0.0                       # Layer utilization (Ratio)
system.membus.snoop_filter.totRequests         123203                       # Total number of requests made to the snoop filter. (Count)
system.membus.snoop_filter.hitSingleRequests        60328                       # Number of requests hitting in the snoop filter with a single holder of the requested data. (Count)
system.membus.snoop_filter.hitMultiRequests            2                       # Number of requests hitting in the snoop filter with multiple (>1) holders of the requested data. (Count)
system.membus.snoop_filter.totSnoops                0                       # Total number of snoops made to the snoop filter. (Count)
system.membus.snoop_filter.hitSingleSnoops            0                       # Number of snoops hitting in the snoop filter with a single holder of the requested data. (Count)
system.membus.snoop_filter.hitMultiSnoops            0                       # Number of snoops hitting in the snoop filter with multiple (>1) holders of the requested data. (Count)
system.voltage_domain.voltage                       1                       # Voltage in Volts (Volt)
system.workload.inst.arm                            0                       # number of arm instructions executed (Count)
system.workload.inst.quiesce                        0                       # number of quiesce instructions executed (Count)

---------- End Simulation Statistics   ----------
