
---------- Begin Simulation Statistics ----------
simSeconds                                   0.031691                       # Number of seconds simulated (Second)
simTicks                                  31690600500                       # Number of ticks simulated (Tick)
finalTick                                 31690600500                       # Number of ticks from beginning of simulation (restored from checkpoints and never reset) (Tick)
simFreq                                  1000000000000                       # The number of ticks per simulated second ((Tick/Second))
hostSeconds                                    116.41                       # Real time elapsed on the host (Second)
hostTickRate                                272227313                       # The number of ticks simulated per host second (ticks/s) ((Tick/Second))
hostMemory                                     665904                       # Number of bytes of host memory used (Byte)
simInsts                                     41289468                       # Number of instructions simulated (Count)
simOps                                       78315814                       # Number of ops (including micro ops) simulated (Count)
hostInstRate                                   354683                       # Simulator instruction rate (inst/s) ((Count/Second))
hostOpRate                                     672745                       # Simulator op (including micro ops) rate (op/s) ((Count/Second))
system.clk_domain.clock                          1000                       # Clock period in ticks (Tick)
system.cpu.numCycles                         63381202                       # Number of cpu cycles simulated (Cycle)
system.cpu.numWorkItemsStarted                      0                       # Number of work items this cpu started (Count)
system.cpu.numWorkItemsCompleted                    0                       # Number of work items this cpu completed (Count)
system.cpu.instsAdded                        83630459                       # Number of instructions added to the IQ (excludes non-spec) (Count)
system.cpu.nonSpecInstsAdded                       70                       # Number of non-speculative instructions added to the IQ (Count)
system.cpu.instsIssued                       82077575                       # Number of instructions issued (Count)
system.cpu.squashedInstsIssued                  46271                       # Number of squashed instructions issued (Count)
system.cpu.squashedInstsExamined              5314709                       # Number of squashed instructions iterated over during squash; mainly for profiling (Count)
system.cpu.squashedOperandsExamined           7524793                       # Number of squashed operands that are examined and possibly removed from graph (Count)
system.cpu.squashedNonSpecRemoved                  52                       # Number of squashed non-spec instructions that were removed (Count)
system.cpu.numIssuedDist::samples            62427010                       # Number of insts issued each cycle (Count)
system.cpu.numIssuedDist::mean               1.314777                       # Number of insts issued each cycle (Count)
system.cpu.numIssuedDist::stdev              2.015240                       # Number of insts issued each cycle (Count)
system.cpu.numIssuedDist::underflows                0      0.00%      0.00% # Number of insts issued each cycle (Count)
system.cpu.numIssuedDist::0                  36964201     59.21%     59.21% # Number of insts issued each cycle (Count)
system.cpu.numIssuedDist::1                   5696268      9.12%     68.34% # Number of insts issued each cycle (Count)
system.cpu.numIssuedDist::2                   5945399      9.52%     77.86% # Number of insts issued each cycle (Count)
system.cpu.numIssuedDist::3                   4051698      6.49%     84.35% # Number of insts issued each cycle (Count)
system.cpu.numIssuedDist::4                   3151072      5.05%     89.40% # Number of insts issued each cycle (Count)
system.cpu.numIssuedDist::5                   2550331      4.09%     93.48% # Number of insts issued each cycle (Count)
system.cpu.numIssuedDist::6                   2220731      3.56%     97.04% # Number of insts issued each cycle (Count)
system.cpu.numIssuedDist::7                   1123394      1.80%     98.84% # Number of insts issued each cycle (Count)
system.cpu.numIssuedDist::8                    723916      1.16%    100.00% # Number of insts issued each cycle (Count)
system.cpu.numIssuedDist::overflows                 0      0.00%    100.00% # Number of insts issued each cycle (Count)
system.cpu.numIssuedDist::min_value                 0                       # Number of insts issued each cycle (Count)
system.cpu.numIssuedDist::max_value                 8                       # Number of insts issued each cycle (Count)
system.cpu.numIssuedDist::total              62427010                       # Number of insts issued each cycle (Count)
system.cpu.statFuBusy::No_OpClass                   0      0.00%      0.00% # attempts to use FU when none available (Count)
system.cpu.statFuBusy::IntAlu                 1089352     80.09%     80.09% # attempts to use FU when none available (Count)
system.cpu.statFuBusy::IntMult                      0      0.00%     80.09% # attempts to use FU when none available (Count)
system.cpu.statFuBusy::IntDiv                       0      0.00%     80.09% # attempts to use FU when none available (Count)
system.cpu.statFuBusy::FloatAdd                     0      0.00%     80.09% # attempts to use FU when none available (Count)
system.cpu.statFuBusy::FloatCmp                     0      0.00%     80.09% # attempts to use FU when none available (Count)
system.cpu.statFuBusy::FloatCvt                     0      0.00%     80.09% # attempts to use FU when none available (Count)
system.cpu.statFuBusy::FloatMult                    0      0.00%     80.09% # attempts to use FU when none available (Count)
system.cpu.statFuBusy::FloatMultAcc                 0      0.00%     80.09% # attempts to use FU when none available (Count)
system.cpu.statFuBusy::FloatDiv                     0      0.00%     80.09% # attempts to use FU when none available (Count)
system.cpu.statFuBusy::FloatMisc                    0      0.00%     80.09% # attempts to use FU when none available (Count)
system.cpu.statFuBusy::FloatSqrt                    0      0.00%     80.09% # attempts to use FU when none available (Count)
system.cpu.statFuBusy::SimdAdd                      0      0.00%     80.09% # attempts to use FU when none available (Count)
system.cpu.statFuBusy::SimdAddAcc                   0      0.00%     80.09% # attempts to use FU when none available (Count)
system.cpu.statFuBusy::SimdAlu                  23445      1.72%     81.81% # attempts to use FU when none available (Count)
system.cpu.statFuBusy::SimdCmp                      0      0.00%     81.81% # attempts to use FU when none available (Count)
system.cpu.statFuBusy::SimdCvt                    206      0.02%     81.83% # attempts to use FU when none available (Count)
system.cpu.statFuBusy::SimdMisc                  3869      0.28%     82.11% # attempts to use FU when none available (Count)
system.cpu.statFuBusy::SimdMult                     0      0.00%     82.11% # attempts to use FU when none available (Count)
system.cpu.statFuBusy::SimdMultAcc                  0      0.00%     82.11% # attempts to use FU when none available (Count)
system.cpu.statFuBusy::SimdShift                    0      0.00%     82.11% # attempts to use FU when none available (Count)
system.cpu.statFuBusy::SimdShiftAcc                 0      0.00%     82.11% # attempts to use FU when none available (Count)
system.cpu.statFuBusy::SimdDiv                      0      0.00%     82.11% # attempts to use FU when none available (Count)
system.cpu.statFuBusy::SimdSqrt                     0      0.00%     82.11% # attempts to use FU when none available (Count)
system.cpu.statFuBusy::SimdFloatAdd                 0      0.00%     82.11% # attempts to use FU when none available (Count)
system.cpu.statFuBusy::SimdFloatAlu                 0      0.00%     82.11% # attempts to use FU when none available (Count)
system.cpu.statFuBusy::SimdFloatCmp                 0      0.00%     82.11% # attempts to use FU when none available (Count)
system.cpu.statFuBusy::SimdFloatCvt                 0      0.00%     82.11% # attempts to use FU when none available (Count)
system.cpu.statFuBusy::SimdFloatDiv                 0      0.00%     82.11% # attempts to use FU when none available (Count)
system.cpu.statFuBusy::SimdFloatMisc                0      0.00%     82.11% # attempts to use FU when none available (Count)
system.cpu.statFuBusy::SimdFloatMult                0      0.00%     82.11% # attempts to use FU when none available (Count)
system.cpu.statFuBusy::SimdFloatMultAcc             0      0.00%     82.11% # attempts to use FU when none available (Count)
system.cpu.statFuBusy::SimdFloatSqrt                0      0.00%     82.11% # attempts to use FU when none available (Count)
system.cpu.statFuBusy::SimdReduceAdd                0      0.00%     82.11% # attempts to use FU when none available (Count)
system.cpu.statFuBusy::SimdReduceAlu                0      0.00%     82.11% # attempts to use FU when none available (Count)
system.cpu.statFuBusy::SimdReduceCmp                0      0.00%     82.11% # attempts to use FU when none available (Count)
system.cpu.statFuBusy::SimdFloatReduceAdd            0      0.00%     82.11% # attempts to use FU when none available (Count)
system.cpu.statFuBusy::SimdFloatReduceCmp            0      0.00%     82.11% # attempts to use FU when none available (Count)
system.cpu.statFuBusy::SimdAes                      0      0.00%     82.11% # attempts to use FU when none available (Count)
system.cpu.statFuBusy::SimdAesMix                   0      0.00%     82.11% # attempts to use FU when none available (Count)
system.cpu.statFuBusy::SimdSha1Hash                 0      0.00%     82.11% # attempts to use FU when none available (Count)
system.cpu.statFuBusy::SimdSha1Hash2                0      0.00%     82.11% # attempts to use FU when none available (Count)
system.cpu.statFuBusy::SimdSha256Hash               0      0.00%     82.11% # attempts to use FU when none available (Count)
system.cpu.statFuBusy::SimdSha256Hash2              0      0.00%     82.11% # attempts to use FU when none available (Count)
system.cpu.statFuBusy::SimdShaSigma2                0      0.00%     82.11% # attempts to use FU when none available (Count)
system.cpu.statFuBusy::SimdShaSigma3                0      0.00%     82.11% # attempts to use FU when none available (Count)
system.cpu.statFuBusy::SimdPredAlu                  0      0.00%     82.11% # attempts to use FU when none available (Count)
system.cpu.statFuBusy::MemRead                 181459     13.34%     95.45% # attempts to use FU when none available (Count)
system.cpu.statFuBusy::MemWrite                 38480      2.83%     98.28% # attempts to use FU when none available (Count)
system.cpu.statFuBusy::FloatMemRead              6600      0.49%     98.77% # attempts to use FU when none available (Count)
system.cpu.statFuBusy::FloatMemWrite            16777      1.23%    100.00% # attempts to use FU when none available (Count)
system.cpu.statFuBusy::IprAccess                    0      0.00%    100.00% # attempts to use FU when none available (Count)
system.cpu.statFuBusy::InstPrefetch                 0      0.00%    100.00% # attempts to use FU when none available (Count)
system.cpu.statIssuedInstType_0::No_OpClass       884668      1.08%      1.08% # Number of instructions issued per FU type, per thread (Count)
system.cpu.statIssuedInstType_0::IntAlu      59907477     72.99%     74.07% # Number of instructions issued per FU type, per thread (Count)
system.cpu.statIssuedInstType_0::IntMult        89607      0.11%     74.18% # Number of instructions issued per FU type, per thread (Count)
system.cpu.statIssuedInstType_0::IntDiv        910506      1.11%     75.29% # Number of instructions issued per FU type, per thread (Count)
system.cpu.statIssuedInstType_0::FloatAdd       898539      1.09%     76.38% # Number of instructions issued per FU type, per thread (Count)
system.cpu.statIssuedInstType_0::FloatCmp            0      0.00%     76.38% # Number of instructions issued per FU type, per thread (Count)
system.cpu.statIssuedInstType_0::FloatCvt            0      0.00%     76.38% # Number of instructions issued per FU type, per thread (Count)
system.cpu.statIssuedInstType_0::FloatMult            0      0.00%     76.38% # Number of instructions issued per FU type, per thread (Count)
system.cpu.statIssuedInstType_0::FloatMultAcc            0      0.00%     76.38% # Number of instructions issued per FU type, per thread (Count)
system.cpu.statIssuedInstType_0::FloatDiv            0      0.00%     76.38% # Number of instructions issued per FU type, per thread (Count)
system.cpu.statIssuedInstType_0::FloatMisc            0      0.00%     76.38% # Number of instructions issued per FU type, per thread (Count)
system.cpu.statIssuedInstType_0::FloatSqrt            0      0.00%     76.38% # Number of instructions issued per FU type, per thread (Count)
system.cpu.statIssuedInstType_0::SimdAdd            0      0.00%     76.38% # Number of instructions issued per FU type, per thread (Count)
system.cpu.statIssuedInstType_0::SimdAddAcc            0      0.00%     76.38% # Number of instructions issued per FU type, per thread (Count)
system.cpu.statIssuedInstType_0::SimdAlu       292600      0.36%     76.74% # Number of instructions issued per FU type, per thread (Count)
system.cpu.statIssuedInstType_0::SimdCmp          336      0.00%     76.74% # Number of instructions issued per FU type, per thread (Count)
system.cpu.statIssuedInstType_0::SimdCvt       164709      0.20%     76.94% # Number of instructions issued per FU type, per thread (Count)
system.cpu.statIssuedInstType_0::SimdMisc       259027      0.32%     77.25% # Number of instructions issued per FU type, per thread (Count)
system.cpu.statIssuedInstType_0::SimdMult            0      0.00%     77.25% # Number of instructions issued per FU type, per thread (Count)
system.cpu.statIssuedInstType_0::SimdMultAcc            0      0.00%     77.25% # Number of instructions issued per FU type, per thread (Count)
system.cpu.statIssuedInstType_0::SimdShift            0      0.00%     77.25% # Number of instructions issued per FU type, per thread (Count)
system.cpu.statIssuedInstType_0::SimdShiftAcc            0      0.00%     77.25% # Number of instructions issued per FU type, per thread (Count)
system.cpu.statIssuedInstType_0::SimdDiv            0      0.00%     77.25% # Number of instructions issued per FU type, per thread (Count)
system.cpu.statIssuedInstType_0::SimdSqrt            0      0.00%     77.25% # Number of instructions issued per FU type, per thread (Count)
system.cpu.statIssuedInstType_0::SimdFloatAdd       278556      0.34%     77.59% # Number of instructions issued per FU type, per thread (Count)
system.cpu.statIssuedInstType_0::SimdFloatAlu            0      0.00%     77.59% # Number of instructions issued per FU type, per thread (Count)
system.cpu.statIssuedInstType_0::SimdFloatCmp            0      0.00%     77.59% # Number of instructions issued per FU type, per thread (Count)
system.cpu.statIssuedInstType_0::SimdFloatCvt        16394      0.02%     77.61% # Number of instructions issued per FU type, per thread (Count)
system.cpu.statIssuedInstType_0::SimdFloatDiv            0      0.00%     77.61% # Number of instructions issued per FU type, per thread (Count)
system.cpu.statIssuedInstType_0::SimdFloatMisc            0      0.00%     77.61% # Number of instructions issued per FU type, per thread (Count)
system.cpu.statIssuedInstType_0::SimdFloatMult       262145      0.32%     77.93% # Number of instructions issued per FU type, per thread (Count)
system.cpu.statIssuedInstType_0::SimdFloatMultAcc            0      0.00%     77.93% # Number of instructions issued per FU type, per thread (Count)
system.cpu.statIssuedInstType_0::SimdFloatSqrt            0      0.00%     77.93% # Number of instructions issued per FU type, per thread (Count)
system.cpu.statIssuedInstType_0::SimdReduceAdd            0      0.00%     77.93% # Number of instructions issued per FU type, per thread (Count)
system.cpu.statIssuedInstType_0::SimdReduceAlu            0      0.00%     77.93% # Number of instructions issued per FU type, per thread (Count)
system.cpu.statIssuedInstType_0::SimdReduceCmp            0      0.00%     77.93% # Number of instructions issued per FU type, per thread (Count)
system.cpu.statIssuedInstType_0::SimdFloatReduceAdd            0      0.00%     77.93% # Number of instructions issued per FU type, per thread (Count)
system.cpu.statIssuedInstType_0::SimdFloatReduceCmp            0      0.00%     77.93% # Number of instructions issued per FU type, per thread (Count)
system.cpu.statIssuedInstType_0::SimdAes            0      0.00%     77.93% # Number of instructions issued per FU type, per thread (Count)
system.cpu.statIssuedInstType_0::SimdAesMix            0      0.00%     77.93% # Number of instructions issued per FU type, per thread (Count)
system.cpu.statIssuedInstType_0::SimdSha1Hash            0      0.00%     77.93% # Number of instructions issued per FU type, per thread (Count)
system.cpu.statIssuedInstType_0::SimdSha1Hash2            0      0.00%     77.93% # Number of instructions issued per FU type, per thread (Count)
system.cpu.statIssuedInstType_0::SimdSha256Hash            0      0.00%     77.93% # Number of instructions issued per FU type, per thread (Count)
system.cpu.statIssuedInstType_0::SimdSha256Hash2            0      0.00%     77.93% # Number of instructions issued per FU type, per thread (Count)
system.cpu.statIssuedInstType_0::SimdShaSigma2            0      0.00%     77.93% # Number of instructions issued per FU type, per thread (Count)
system.cpu.statIssuedInstType_0::SimdShaSigma3            0      0.00%     77.93% # Number of instructions issued per FU type, per thread (Count)
system.cpu.statIssuedInstType_0::SimdPredAlu            0      0.00%     77.93% # Number of instructions issued per FU type, per thread (Count)
system.cpu.statIssuedInstType_0::MemRead     10434789     12.71%     90.65% # Number of instructions issued per FU type, per thread (Count)
system.cpu.statIssuedInstType_0::MemWrite      5519143      6.72%     97.37% # Number of instructions issued per FU type, per thread (Count)
system.cpu.statIssuedInstType_0::FloatMemRead      1378864      1.68%     99.05% # Number of instructions issued per FU type, per thread (Count)
system.cpu.statIssuedInstType_0::FloatMemWrite       780215      0.95%    100.00% # Number of instructions issued per FU type, per thread (Count)
system.cpu.statIssuedInstType_0::IprAccess            0      0.00%    100.00% # Number of instructions issued per FU type, per thread (Count)
system.cpu.statIssuedInstType_0::InstPrefetch            0      0.00%    100.00% # Number of instructions issued per FU type, per thread (Count)
system.cpu.statIssuedInstType_0::total       82077575                       # Number of instructions issued per FU type, per thread (Count)
system.cpu.issueRate                         1.294983                       # Inst issue rate ((Count/Cycle))
system.cpu.fuBusy                             1360188                       # FU busy when requested (Count)
system.cpu.fuBusyRate                        0.016572                       # FU busy rate (busy events/executed inst) ((Count/Count))
system.cpu.intInstQueueReads                219192371                       # Number of integer instruction queue reads (Count)
system.cpu.intInstQueueWrites                84423921                       # Number of integer instruction queue writes (Count)
system.cpu.intInstQueueWakeupAccesses        77122354                       # Number of integer instruction queue wakeup accesses (Count)
system.cpu.fpInstQueueReads                   8796248                       # Number of floating instruction queue reads (Count)
system.cpu.fpInstQueueWrites                  4523646                       # Number of floating instruction queue writes (Count)
system.cpu.fpInstQueueWakeupAccesses          4331915                       # Number of floating instruction queue wakeup accesses (Count)
system.cpu.vecInstQueueReads                        0                       # Number of vector instruction queue reads (Count)
system.cpu.vecInstQueueWrites                       0                       # Number of vector instruction queue writes (Count)
system.cpu.vecInstQueueWakeupAccesses               0                       # Number of vector instruction queue wakeup accesses (Count)
system.cpu.intAluAccesses                    78129614                       # Number of integer alu accesses (Count)
system.cpu.fpAluAccesses                      4423481                       # Number of floating point alu accesses (Count)
system.cpu.vecAluAccesses                           0                       # Number of vector alu accesses (Count)
system.cpu.numInsts                          81743133                       # Number of executed instructions (Count)
system.cpu.numLoadInsts                      11780963                       # Number of load instructions executed (Count)
system.cpu.numSquashedInsts                    334442                       # Number of squashed instructions skipped in execute (Count)
system.cpu.numSwp                                   0                       # Number of swp insts executed (Count)
system.cpu.numNop                                   0                       # Number of nop insts executed (Count)
system.cpu.numRefs                           18034170                       # Number of memory reference insts executed (Count)
system.cpu.numBranches                        8695709                       # Number of branches executed (Count)
system.cpu.numStoreInsts                      6253207                       # Number of stores executed (Count)
system.cpu.numRate                           1.289706                       # Inst execution rate ((Count/Cycle))
system.cpu.timesIdled                           29368                       # Number of times that the entire CPU went into an idle state and unscheduled itself (Count)
system.cpu.idleCycles                          954192                       # Total number of cycles that the CPU has spent unscheduled due to idling (Cycle)
system.cpu.committedInsts                    41289468                       # Number of Instructions Simulated (Count)
system.cpu.committedOps                      78315814                       # Number of Ops (including micro ops) Simulated (Count)
system.cpu.cpi                               1.535045                       # CPI: Cycles Per Instruction ((Cycle/Count))
system.cpu.totalCpi                          1.535045                       # CPI: Total CPI of All Threads ((Cycle/Count))
system.cpu.ipc                               0.651447                       # IPC: Instructions Per Cycle ((Count/Cycle))
system.cpu.totalIpc                          0.651447                       # IPC: Total IPC of All Threads ((Count/Cycle))
system.cpu.intRegfileReads                  126292392                       # Number of integer regfile reads (Count)
system.cpu.intRegfileWrites                  64153894                       # Number of integer regfile writes (Count)
system.cpu.fpRegfileReads                     3922270                       # Number of floating regfile reads (Count)
system.cpu.fpRegfileWrites                    3363332                       # Number of floating regfile writes (Count)
system.cpu.ccRegfileReads                    44349768                       # number of cc regfile reads (Count)
system.cpu.ccRegfileWrites                   26467632                       # number of cc regfile writes (Count)
system.cpu.miscRegfileReads                  33175520                       # number of misc regfile reads (Count)
system.cpu.MemDepUnit__0.insertedLoads       11770364                       # Number of loads inserted to the mem dependence unit. (Count)
system.cpu.MemDepUnit__0.insertedStores       6452964                       # Number of stores inserted to the mem dependence unit. (Count)
system.cpu.MemDepUnit__0.conflictingLoads      2378150                       # Number of conflicting loads. (Count)
system.cpu.MemDepUnit__0.conflictingStores      1398412                       # Number of conflicting stores. (Count)
system.cpu.MemDepUnit__1.insertedLoads              0                       # Number of loads inserted to the mem dependence unit. (Count)
system.cpu.MemDepUnit__1.insertedStores             0                       # Number of stores inserted to the mem dependence unit. (Count)
system.cpu.MemDepUnit__1.conflictingLoads            0                       # Number of conflicting loads. (Count)
system.cpu.MemDepUnit__1.conflictingStores            0                       # Number of conflicting stores. (Count)
system.cpu.MemDepUnit__2.insertedLoads              0                       # Number of loads inserted to the mem dependence unit. (Count)
system.cpu.MemDepUnit__2.insertedStores             0                       # Number of stores inserted to the mem dependence unit. (Count)
system.cpu.MemDepUnit__2.conflictingLoads            0                       # Number of conflicting loads. (Count)
system.cpu.MemDepUnit__2.conflictingStores            0                       # Number of conflicting stores. (Count)
system.cpu.MemDepUnit__3.insertedLoads              0                       # Number of loads inserted to the mem dependence unit. (Count)
system.cpu.MemDepUnit__3.insertedStores             0                       # Number of stores inserted to the mem dependence unit. (Count)
system.cpu.MemDepUnit__3.conflictingLoads            0                       # Number of conflicting loads. (Count)
system.cpu.MemDepUnit__3.conflictingStores            0                       # Number of conflicting stores. (Count)
system.cpu.branchPred.lookups                 9655150                       # Number of BP lookups (Count)
system.cpu.branchPred.condPredicted           7756325                       # Number of conditional branches predicted (Count)
system.cpu.branchPred.condIncorrect            165319                       # Number of conditional branches incorrect (Count)
system.cpu.branchPred.BTBLookups              5598205                       # Number of BTB lookups (Count)
system.cpu.branchPred.BTBHits                 5540519                       # Number of BTB hits (Count)
system.cpu.branchPred.BTBHitRatio            0.989696                       # BTB Hit Ratio (Ratio)
system.cpu.branchPred.RASUsed                  542511                       # Number of times the RAS was used to get a target. (Count)
system.cpu.branchPred.RASIncorrect                  5                       # Number of incorrect RAS predictions. (Count)
system.cpu.branchPred.indirectLookups          110938                       # Number of indirect predictor lookups. (Count)
system.cpu.branchPred.indirectHits             109603                       # Number of indirect target hits. (Count)
system.cpu.branchPred.indirectMisses             1335                       # Number of indirect misses. (Count)
system.cpu.branchPred.indirectMispredicted          195                       # Number of mispredicted indirect branches. (Count)
system.cpu.commit.commitSquashedInsts         5100056                       # The number of squashed insts skipped by commit (Count)
system.cpu.commit.commitNonSpecStalls              18                       # The number of times commit has been forced to stall to communicate backwards (Count)
system.cpu.commit.branchMispredicts            152699                       # The number of times a branch was mispredicted (Count)
system.cpu.commit.numCommittedDist::samples     61657958                       # Number of insts commited each cycle (Count)
system.cpu.commit.numCommittedDist::mean     1.270166                       # Number of insts commited each cycle (Count)
system.cpu.commit.numCommittedDist::stdev     2.533288                       # Number of insts commited each cycle (Count)
system.cpu.commit.numCommittedDist::underflows            0      0.00%      0.00% # Number of insts commited each cycle (Count)
system.cpu.commit.numCommittedDist::0        44268083     71.80%     71.80% # Number of insts commited each cycle (Count)
system.cpu.commit.numCommittedDist::1         3391796      5.50%     77.30% # Number of insts commited each cycle (Count)
system.cpu.commit.numCommittedDist::2         2775199      4.50%     81.80% # Number of insts commited each cycle (Count)
system.cpu.commit.numCommittedDist::3         2645689      4.29%     86.09% # Number of insts commited each cycle (Count)
system.cpu.commit.numCommittedDist::4          936722      1.52%     87.61% # Number of insts commited each cycle (Count)
system.cpu.commit.numCommittedDist::5          578005      0.94%     88.55% # Number of insts commited each cycle (Count)
system.cpu.commit.numCommittedDist::6          464434      0.75%     89.30% # Number of insts commited each cycle (Count)
system.cpu.commit.numCommittedDist::7          771204      1.25%     90.55% # Number of insts commited each cycle (Count)
system.cpu.commit.numCommittedDist::8         5826826      9.45%    100.00% # Number of insts commited each cycle (Count)
system.cpu.commit.numCommittedDist::overflows            0      0.00%    100.00% # Number of insts commited each cycle (Count)
system.cpu.commit.numCommittedDist::min_value            0                       # Number of insts commited each cycle (Count)
system.cpu.commit.numCommittedDist::max_value            8                       # Number of insts commited each cycle (Count)
system.cpu.commit.numCommittedDist::total     61657958                       # Number of insts commited each cycle (Count)
system.cpu.commit.instsCommitted             41289468                       # Number of instructions committed (Count)
system.cpu.commit.opsCommitted               78315814                       # Number of ops (including micro ops) committed (Count)
system.cpu.commit.memRefs                    17180900                       # Number of memory references committed (Count)
system.cpu.commit.loads                      11117876                       # Number of loads committed (Count)
system.cpu.commit.amos                              0                       # Number of atomic instructions committed (Count)
system.cpu.commit.membars                          12                       # Number of memory barriers committed (Count)
system.cpu.commit.branches                    8399625                       # Number of branches committed (Count)
system.cpu.commit.vectorInstructions                0                       # Number of committed Vector instructions. (Count)
system.cpu.commit.floating                    4284466                       # Number of committed floating point instructions. (Count)
system.cpu.commit.integer                    74436717                       # Number of committed integer instructions. (Count)
system.cpu.commit.functionCalls                491734                       # Number of function calls committed. (Count)
system.cpu.commit.committedInstType_0::No_OpClass       850890      1.09%      1.09% # Class of committed instruction (Count)
system.cpu.commit.committedInstType_0::IntAlu     57163185     72.99%     74.08% # Class of committed instruction (Count)
system.cpu.commit.committedInstType_0::IntMult        89549      0.11%     74.19% # Class of committed instruction (Count)
system.cpu.commit.committedInstType_0::IntDiv       882475      1.13%     75.32% # Class of committed instruction (Count)
system.cpu.commit.committedInstType_0::FloatAdd       880794      1.12%     76.44% # Class of committed instruction (Count)
system.cpu.commit.committedInstType_0::FloatCmp            0      0.00%     76.44% # Class of committed instruction (Count)
system.cpu.commit.committedInstType_0::FloatCvt            0      0.00%     76.44% # Class of committed instruction (Count)
system.cpu.commit.committedInstType_0::FloatMult            0      0.00%     76.44% # Class of committed instruction (Count)
system.cpu.commit.committedInstType_0::FloatMultAcc            0      0.00%     76.44% # Class of committed instruction (Count)
system.cpu.commit.committedInstType_0::FloatDiv            0      0.00%     76.44% # Class of committed instruction (Count)
system.cpu.commit.committedInstType_0::FloatMisc            0      0.00%     76.44% # Class of committed instruction (Count)
system.cpu.commit.committedInstType_0::FloatSqrt            0      0.00%     76.44% # Class of committed instruction (Count)
system.cpu.commit.committedInstType_0::SimdAdd            0      0.00%     76.44% # Class of committed instruction (Count)
system.cpu.commit.committedInstType_0::SimdAddAcc            0      0.00%     76.44% # Class of committed instruction (Count)
system.cpu.commit.committedInstType_0::SimdAlu       287296      0.37%     76.81% # Class of committed instruction (Count)
system.cpu.commit.committedInstType_0::SimdCmp          336      0.00%     76.81% # Class of committed instruction (Count)
system.cpu.commit.committedInstType_0::SimdCvt       164462      0.21%     77.02% # Class of committed instruction (Count)
system.cpu.commit.committedInstType_0::SimdMisc       258871      0.33%     77.35% # Class of committed instruction (Count)
system.cpu.commit.committedInstType_0::SimdMult            0      0.00%     77.35% # Class of committed instruction (Count)
system.cpu.commit.committedInstType_0::SimdMultAcc            0      0.00%     77.35% # Class of committed instruction (Count)
system.cpu.commit.committedInstType_0::SimdShift            0      0.00%     77.35% # Class of committed instruction (Count)
system.cpu.commit.committedInstType_0::SimdShiftAcc            0      0.00%     77.35% # Class of committed instruction (Count)
system.cpu.commit.committedInstType_0::SimdDiv            0      0.00%     77.35% # Class of committed instruction (Count)
system.cpu.commit.committedInstType_0::SimdSqrt            0      0.00%     77.35% # Class of committed instruction (Count)
system.cpu.commit.committedInstType_0::SimdFloatAdd       278528      0.36%     77.71% # Class of committed instruction (Count)
system.cpu.commit.committedInstType_0::SimdFloatAlu            0      0.00%     77.71% # Class of committed instruction (Count)
system.cpu.commit.committedInstType_0::SimdFloatCmp            0      0.00%     77.71% # Class of committed instruction (Count)
system.cpu.commit.committedInstType_0::SimdFloatCvt        16384      0.02%     77.73% # Class of committed instruction (Count)
system.cpu.commit.committedInstType_0::SimdFloatDiv            0      0.00%     77.73% # Class of committed instruction (Count)
system.cpu.commit.committedInstType_0::SimdFloatMisc            0      0.00%     77.73% # Class of committed instruction (Count)
system.cpu.commit.committedInstType_0::SimdFloatMult       262144      0.33%     78.06% # Class of committed instruction (Count)
system.cpu.commit.committedInstType_0::SimdFloatMultAcc            0      0.00%     78.06% # Class of committed instruction (Count)
system.cpu.commit.committedInstType_0::SimdFloatSqrt            0      0.00%     78.06% # Class of committed instruction (Count)
system.cpu.commit.committedInstType_0::SimdReduceAdd            0      0.00%     78.06% # Class of committed instruction (Count)
system.cpu.commit.committedInstType_0::SimdReduceAlu            0      0.00%     78.06% # Class of committed instruction (Count)
system.cpu.commit.committedInstType_0::SimdReduceCmp            0      0.00%     78.06% # Class of committed instruction (Count)
system.cpu.commit.committedInstType_0::SimdFloatReduceAdd            0      0.00%     78.06% # Class of committed instruction (Count)
system.cpu.commit.committedInstType_0::SimdFloatReduceCmp            0      0.00%     78.06% # Class of committed instruction (Count)
system.cpu.commit.committedInstType_0::SimdAes            0      0.00%     78.06% # Class of committed instruction (Count)
system.cpu.commit.committedInstType_0::SimdAesMix            0      0.00%     78.06% # Class of committed instruction (Count)
system.cpu.commit.committedInstType_0::SimdSha1Hash            0      0.00%     78.06% # Class of committed instruction (Count)
system.cpu.commit.committedInstType_0::SimdSha1Hash2            0      0.00%     78.06% # Class of committed instruction (Count)
system.cpu.commit.committedInstType_0::SimdSha256Hash            0      0.00%     78.06% # Class of committed instruction (Count)
system.cpu.commit.committedInstType_0::SimdSha256Hash2            0      0.00%     78.06% # Class of committed instruction (Count)
system.cpu.commit.committedInstType_0::SimdShaSigma2            0      0.00%     78.06% # Class of committed instruction (Count)
system.cpu.commit.committedInstType_0::SimdShaSigma3            0      0.00%     78.06% # Class of committed instruction (Count)
system.cpu.commit.committedInstType_0::SimdPredAlu            0      0.00%     78.06% # Class of committed instruction (Count)
system.cpu.commit.committedInstType_0::MemRead      9777520     12.48%     90.55% # Class of committed instruction (Count)
system.cpu.commit.committedInstType_0::MemWrite      5308845      6.78%     97.33% # Class of committed instruction (Count)
system.cpu.commit.committedInstType_0::FloatMemRead      1340356      1.71%     99.04% # Class of committed instruction (Count)
system.cpu.commit.committedInstType_0::FloatMemWrite       754179      0.96%    100.00% # Class of committed instruction (Count)
system.cpu.commit.committedInstType_0::IprAccess            0      0.00%    100.00% # Class of committed instruction (Count)
system.cpu.commit.committedInstType_0::InstPrefetch            0      0.00%    100.00% # Class of committed instruction (Count)
system.cpu.commit.committedInstType_0::total     78315814                       # Class of committed instruction (Count)
system.cpu.commit.commitEligibleSamples       5826826                       # number cycles where commit BW limit reached (Cycle)
system.cpu.dcache.demandHits::cpu.data       12170200                       # number of demand (read+write) hits (Count)
system.cpu.dcache.demandHits::total          12170200                       # number of demand (read+write) hits (Count)
system.cpu.dcache.overallHits::cpu.data      12170200                       # number of overall hits (Count)
system.cpu.dcache.overallHits::total         12170200                       # number of overall hits (Count)
system.cpu.dcache.demandMisses::cpu.data      1650731                       # number of demand (read+write) misses (Count)
system.cpu.dcache.demandMisses::total         1650731                       # number of demand (read+write) misses (Count)
system.cpu.dcache.overallMisses::cpu.data      1650731                       # number of overall misses (Count)
system.cpu.dcache.overallMisses::total        1650731                       # number of overall misses (Count)
system.cpu.dcache.demandMissLatency::cpu.data  76078668559                       # number of demand (read+write) miss ticks (Tick)
system.cpu.dcache.demandMissLatency::total  76078668559                       # number of demand (read+write) miss ticks (Tick)
system.cpu.dcache.overallMissLatency::cpu.data  76078668559                       # number of overall miss ticks (Tick)
system.cpu.dcache.overallMissLatency::total  76078668559                       # number of overall miss ticks (Tick)
system.cpu.dcache.demandAccesses::cpu.data     13820931                       # number of demand (read+write) accesses (Count)
system.cpu.dcache.demandAccesses::total      13820931                       # number of demand (read+write) accesses (Count)
system.cpu.dcache.overallAccesses::cpu.data     13820931                       # number of overall (read+write) accesses (Count)
system.cpu.dcache.overallAccesses::total     13820931                       # number of overall (read+write) accesses (Count)
system.cpu.dcache.demandMissRate::cpu.data     0.119437                       # miss rate for demand accesses (Ratio)
system.cpu.dcache.demandMissRate::total      0.119437                       # miss rate for demand accesses (Ratio)
system.cpu.dcache.overallMissRate::cpu.data     0.119437                       # miss rate for overall accesses (Ratio)
system.cpu.dcache.overallMissRate::total     0.119437                       # miss rate for overall accesses (Ratio)
system.cpu.dcache.demandAvgMissLatency::cpu.data 46087.865654                       # average overall miss latency ((Cycle/Count))
system.cpu.dcache.demandAvgMissLatency::total 46087.865654                       # average overall miss latency ((Cycle/Count))
system.cpu.dcache.overallAvgMissLatency::cpu.data 46087.865654                       # average overall miss latency ((Cycle/Count))
system.cpu.dcache.overallAvgMissLatency::total 46087.865654                       # average overall miss latency ((Cycle/Count))
system.cpu.dcache.blockedCycles::no_mshrs      3640411                       # number of cycles access was blocked (Cycle)
system.cpu.dcache.blockedCycles::no_targets            0                       # number of cycles access was blocked (Cycle)
system.cpu.dcache.blockedCauses::no_mshrs       114989                       # number of times access was blocked (Count)
system.cpu.dcache.blockedCauses::no_targets            0                       # number of times access was blocked (Count)
system.cpu.dcache.avgBlocked::no_mshrs      31.658776                       # average number of cycles each access was blocked ((Cycle/Count))
system.cpu.dcache.avgBlocked::no_targets          nan                       # average number of cycles each access was blocked ((Cycle/Count))
system.cpu.dcache.writebacks::writebacks       376575                       # number of writebacks (Count)
system.cpu.dcache.writebacks::total            376575                       # number of writebacks (Count)
system.cpu.dcache.demandMshrHits::cpu.data       563294                       # number of demand (read+write) MSHR hits (Count)
system.cpu.dcache.demandMshrHits::total        563294                       # number of demand (read+write) MSHR hits (Count)
system.cpu.dcache.overallMshrHits::cpu.data       563294                       # number of overall MSHR hits (Count)
system.cpu.dcache.overallMshrHits::total       563294                       # number of overall MSHR hits (Count)
system.cpu.dcache.demandMshrMisses::cpu.data      1087437                       # number of demand (read+write) MSHR misses (Count)
system.cpu.dcache.demandMshrMisses::total      1087437                       # number of demand (read+write) MSHR misses (Count)
system.cpu.dcache.overallMshrMisses::cpu.data      1087437                       # number of overall MSHR misses (Count)
system.cpu.dcache.overallMshrMisses::total      1087437                       # number of overall MSHR misses (Count)
system.cpu.dcache.demandMshrMissLatency::cpu.data  52060754564                       # number of demand (read+write) MSHR miss ticks (Tick)
system.cpu.dcache.demandMshrMissLatency::total  52060754564                       # number of demand (read+write) MSHR miss ticks (Tick)
system.cpu.dcache.overallMshrMissLatency::cpu.data  52060754564                       # number of overall MSHR miss ticks (Tick)
system.cpu.dcache.overallMshrMissLatency::total  52060754564                       # number of overall MSHR miss ticks (Tick)
system.cpu.dcache.demandMshrMissRate::cpu.data     0.078680                       # mshr miss ratio for demand accesses (Ratio)
system.cpu.dcache.demandMshrMissRate::total     0.078680                       # mshr miss ratio for demand accesses (Ratio)
system.cpu.dcache.overallMshrMissRate::cpu.data     0.078680                       # mshr miss ratio for overall accesses (Ratio)
system.cpu.dcache.overallMshrMissRate::total     0.078680                       # mshr miss ratio for overall accesses (Ratio)
system.cpu.dcache.demandAvgMshrMissLatency::cpu.data 47874.731653                       # average overall mshr miss latency ((Cycle/Count))
system.cpu.dcache.demandAvgMshrMissLatency::total 47874.731653                       # average overall mshr miss latency ((Cycle/Count))
system.cpu.dcache.overallAvgMshrMissLatency::cpu.data 47874.731653                       # average overall mshr miss latency ((Cycle/Count))
system.cpu.dcache.overallAvgMshrMissLatency::total 47874.731653                       # average overall mshr miss latency ((Cycle/Count))
system.cpu.dcache.replacements                1087421                       # number of replacements (Count)
system.cpu.dcache.ReadReq.hits::cpu.data      6384699                       # number of ReadReq hits (Count)
system.cpu.dcache.ReadReq.hits::total         6384699                       # number of ReadReq hits (Count)
system.cpu.dcache.ReadReq.misses::cpu.data      1373207                       # number of ReadReq misses (Count)
system.cpu.dcache.ReadReq.misses::total       1373207                       # number of ReadReq misses (Count)
system.cpu.dcache.ReadReq.missLatency::cpu.data  67850038000                       # number of ReadReq miss ticks (Tick)
system.cpu.dcache.ReadReq.missLatency::total  67850038000                       # number of ReadReq miss ticks (Tick)
system.cpu.dcache.ReadReq.accesses::cpu.data      7757906                       # number of ReadReq accesses(hits+misses) (Count)
system.cpu.dcache.ReadReq.accesses::total      7757906                       # number of ReadReq accesses(hits+misses) (Count)
system.cpu.dcache.ReadReq.missRate::cpu.data     0.177007                       # miss rate for ReadReq accesses (Ratio)
system.cpu.dcache.ReadReq.missRate::total     0.177007                       # miss rate for ReadReq accesses (Ratio)
system.cpu.dcache.ReadReq.avgMissLatency::cpu.data 49409.912708                       # average ReadReq miss latency ((Tick/Count))
system.cpu.dcache.ReadReq.avgMissLatency::total 49409.912708                       # average ReadReq miss latency ((Tick/Count))
system.cpu.dcache.ReadReq.mshrHits::cpu.data       554704                       # number of ReadReq MSHR hits (Count)
system.cpu.dcache.ReadReq.mshrHits::total       554704                       # number of ReadReq MSHR hits (Count)
system.cpu.dcache.ReadReq.mshrMisses::cpu.data       818503                       # number of ReadReq MSHR misses (Count)
system.cpu.dcache.ReadReq.mshrMisses::total       818503                       # number of ReadReq MSHR misses (Count)
system.cpu.dcache.ReadReq.mshrMissLatency::cpu.data  44297329000                       # number of ReadReq MSHR miss ticks (Tick)
system.cpu.dcache.ReadReq.mshrMissLatency::total  44297329000                       # number of ReadReq MSHR miss ticks (Tick)
system.cpu.dcache.ReadReq.mshrMissRate::cpu.data     0.105506                       # mshr miss rate for ReadReq accesses (Ratio)
system.cpu.dcache.ReadReq.mshrMissRate::total     0.105506                       # mshr miss rate for ReadReq accesses (Ratio)
system.cpu.dcache.ReadReq.avgMshrMissLatency::cpu.data 54119.934808                       # average ReadReq mshr miss latency ((Tick/Count))
system.cpu.dcache.ReadReq.avgMshrMissLatency::total 54119.934808                       # average ReadReq mshr miss latency ((Tick/Count))
system.cpu.dcache.WriteReq.hits::cpu.data      5785501                       # number of WriteReq hits (Count)
system.cpu.dcache.WriteReq.hits::total        5785501                       # number of WriteReq hits (Count)
system.cpu.dcache.WriteReq.misses::cpu.data       277524                       # number of WriteReq misses (Count)
system.cpu.dcache.WriteReq.misses::total       277524                       # number of WriteReq misses (Count)
system.cpu.dcache.WriteReq.missLatency::cpu.data   8228630559                       # number of WriteReq miss ticks (Tick)
system.cpu.dcache.WriteReq.missLatency::total   8228630559                       # number of WriteReq miss ticks (Tick)
system.cpu.dcache.WriteReq.accesses::cpu.data      6063025                       # number of WriteReq accesses(hits+misses) (Count)
system.cpu.dcache.WriteReq.accesses::total      6063025                       # number of WriteReq accesses(hits+misses) (Count)
system.cpu.dcache.WriteReq.missRate::cpu.data     0.045773                       # miss rate for WriteReq accesses (Ratio)
system.cpu.dcache.WriteReq.missRate::total     0.045773                       # miss rate for WriteReq accesses (Ratio)
system.cpu.dcache.WriteReq.avgMissLatency::cpu.data 29650.158397                       # average WriteReq miss latency ((Tick/Count))
system.cpu.dcache.WriteReq.avgMissLatency::total 29650.158397                       # average WriteReq miss latency ((Tick/Count))
system.cpu.dcache.WriteReq.mshrHits::cpu.data         8590                       # number of WriteReq MSHR hits (Count)
system.cpu.dcache.WriteReq.mshrHits::total         8590                       # number of WriteReq MSHR hits (Count)
system.cpu.dcache.WriteReq.mshrMisses::cpu.data       268934                       # number of WriteReq MSHR misses (Count)
system.cpu.dcache.WriteReq.mshrMisses::total       268934                       # number of WriteReq MSHR misses (Count)
system.cpu.dcache.WriteReq.mshrMissLatency::cpu.data   7763425564                       # number of WriteReq MSHR miss ticks (Tick)
system.cpu.dcache.WriteReq.mshrMissLatency::total   7763425564                       # number of WriteReq MSHR miss ticks (Tick)
system.cpu.dcache.WriteReq.mshrMissRate::cpu.data     0.044356                       # mshr miss rate for WriteReq accesses (Ratio)
system.cpu.dcache.WriteReq.mshrMissRate::total     0.044356                       # mshr miss rate for WriteReq accesses (Ratio)
system.cpu.dcache.WriteReq.avgMshrMissLatency::cpu.data 28867.400790                       # average WriteReq mshr miss latency ((Tick/Count))
system.cpu.dcache.WriteReq.avgMshrMissLatency::total 28867.400790                       # average WriteReq mshr miss latency ((Tick/Count))
system.cpu.dcache.power_state.pwrStateResidencyTicks::UNDEFINED  31690600500                       # Cumulative time (in ticks) in various power states (Tick)
system.cpu.dcache.tags.tagsInUse            15.999784                       # Average ticks per tags in use ((Tick/Count))
system.cpu.dcache.tags.totalRefs             13257637                       # Total number of references to valid blocks. (Count)
system.cpu.dcache.tags.sampledRefs            1087437                       # Sample count of references to valid blocks. (Count)
system.cpu.dcache.tags.avgRefs              12.191637                       # Average number of references to valid blocks. ((Count/Count))
system.cpu.dcache.tags.warmupTick              145000                       # The tick when the warmup percentage was hit. (Tick)
system.cpu.dcache.tags.occupancies::cpu.data    15.999784                       # Average occupied blocks per tick, per requestor ((Count/Tick))
system.cpu.dcache.tags.avgOccs::cpu.data     0.999987                       # Average percentage of cache occupancy ((Ratio/Tick))
system.cpu.dcache.tags.avgOccs::total        0.999987                       # Average percentage of cache occupancy ((Ratio/Tick))
system.cpu.dcache.tags.occupanciesTaskId::1024           16                       # Occupied blocks per task id (Count)
system.cpu.dcache.tags.ageTaskId_1024::0           16                       # Occupied blocks per task id, per block age (Count)
system.cpu.dcache.tags.ratioOccsTaskId::1024            1                       # Ratio of occupied blocks and all blocks, per task id (Ratio)
system.cpu.dcache.tags.tagAccesses           28729299                       # Number of tag accesses (Count)
system.cpu.dcache.tags.dataAccesses          28729299                       # Number of data accesses (Count)
system.cpu.dcache.tags.power_state.pwrStateResidencyTicks::UNDEFINED  31690600500                       # Cumulative time (in ticks) in various power states (Tick)
system.cpu.decode.idleCycles                  7337815                       # Number of cycles decode is idle (Cycle)
system.cpu.decode.blockedCycles              42335858                       # Number of cycles decode is blocked (Cycle)
system.cpu.decode.runCycles                   9899725                       # Number of cycles decode is running (Cycle)
system.cpu.decode.unblockCycles               2694606                       # Number of cycles decode is unblocking (Cycle)
system.cpu.decode.squashCycles                 159006                       # Number of cycles decode is squashing (Cycle)
system.cpu.decode.branchResolved              5235222                       # Number of times decode resolved a branch (Count)
system.cpu.decode.branchMispred                 12851                       # Number of times decode detected a branch misprediction (Count)
system.cpu.decode.decodedInsts               85481305                       # Number of instructions handled by decode (Count)
system.cpu.decode.squashedInsts                 89979                       # Number of squashed instructions handled by decode (Count)
system.cpu.dtb_walker_cache.blockedCycles::no_mshrs            0                       # number of cycles access was blocked (Cycle)
system.cpu.dtb_walker_cache.blockedCycles::no_targets            0                       # number of cycles access was blocked (Cycle)
system.cpu.dtb_walker_cache.blockedCauses::no_mshrs            0                       # number of times access was blocked (Count)
system.cpu.dtb_walker_cache.blockedCauses::no_targets            0                       # number of times access was blocked (Count)
system.cpu.dtb_walker_cache.avgBlocked::no_mshrs          nan                       # average number of cycles each access was blocked ((Cycle/Count))
system.cpu.dtb_walker_cache.avgBlocked::no_targets          nan                       # average number of cycles each access was blocked ((Cycle/Count))
system.cpu.dtb_walker_cache.replacements            0                       # number of replacements (Count)
system.cpu.dtb_walker_cache.power_state.pwrStateResidencyTicks::UNDEFINED  31690600500                       # Cumulative time (in ticks) in various power states (Tick)
system.cpu.dtb_walker_cache.tags.tagsInUse            0                       # Average ticks per tags in use ((Tick/Count))
system.cpu.dtb_walker_cache.tags.totalRefs            0                       # Total number of references to valid blocks. (Count)
system.cpu.dtb_walker_cache.tags.sampledRefs            0                       # Sample count of references to valid blocks. (Count)
system.cpu.dtb_walker_cache.tags.avgRefs          nan                       # Average number of references to valid blocks. ((Count/Count))
system.cpu.dtb_walker_cache.tags.warmupTick            0                       # The tick when the warmup percentage was hit. (Tick)
system.cpu.dtb_walker_cache.tags.tagAccesses            0                       # Number of tag accesses (Count)
system.cpu.dtb_walker_cache.tags.dataAccesses            0                       # Number of data accesses (Count)
system.cpu.dtb_walker_cache.tags.power_state.pwrStateResidencyTicks::UNDEFINED  31690600500                       # Cumulative time (in ticks) in various power states (Tick)
system.cpu.fetch.icacheStallCycles            9520784                       # Number of cycles fetch is stalled on an Icache miss (Cycle)
system.cpu.fetch.insts                       45859309                       # Number of instructions fetch has processed (Count)
system.cpu.fetch.branches                     9655150                       # Number of branches that fetch encountered (Count)
system.cpu.fetch.predictedBranches            6192633                       # Number of branches that fetch has predicted taken (Count)
system.cpu.fetch.cycles                      52721845                       # Number of cycles fetch has run and was not squashing or blocked (Cycle)
system.cpu.fetch.squashCycles                  343668                       # Number of cycles fetch has spent squashing (Cycle)
system.cpu.fetch.tlbCycles                       1342                       # Number of cycles fetch has spent waiting for tlb (Cycle)
system.cpu.fetch.miscStallCycles                  226                       # Number of cycles fetch has spent waiting on interrupts, or bad addresses, or out of MSHRs (Cycle)
system.cpu.fetch.pendingTrapStallCycles         10864                       # Number of stall cycles due to pending traps (Cycle)
system.cpu.fetch.pendingQuiesceStallCycles            2                       # Number of stall cycles due to pending quiesce instructions (Cycle)
system.cpu.fetch.icacheWaitRetryStallCycles          113                       # Number of stall cycles due to full MSHR (Cycle)
system.cpu.fetch.cacheLines                   6525556                       # Number of cache lines fetched (Count)
system.cpu.fetch.icacheSquashes                 25014                       # Number of outstanding Icache misses that were squashed (Count)
system.cpu.fetch.tlbSquashes                       18                       # Number of outstanding ITLB misses that were squashed (Count)
system.cpu.fetch.nisnDist::samples           62427010                       # Number of instructions fetched each cycle (Total) (Count)
system.cpu.fetch.nisnDist::mean              1.415775                       # Number of instructions fetched each cycle (Total) (Count)
system.cpu.fetch.nisnDist::stdev             2.801010                       # Number of instructions fetched each cycle (Total) (Count)
system.cpu.fetch.nisnDist::underflows               0      0.00%      0.00% # Number of instructions fetched each cycle (Total) (Count)
system.cpu.fetch.nisnDist::0                 47636584     76.31%     76.31% # Number of instructions fetched each cycle (Total) (Count)
system.cpu.fetch.nisnDist::1                   874107      1.40%     77.71% # Number of instructions fetched each cycle (Total) (Count)
system.cpu.fetch.nisnDist::2                  1059405      1.70%     79.40% # Number of instructions fetched each cycle (Total) (Count)
system.cpu.fetch.nisnDist::3                  1028920      1.65%     81.05% # Number of instructions fetched each cycle (Total) (Count)
system.cpu.fetch.nisnDist::4                  1640966      2.63%     83.68% # Number of instructions fetched each cycle (Total) (Count)
system.cpu.fetch.nisnDist::5                  1216366      1.95%     85.63% # Number of instructions fetched each cycle (Total) (Count)
system.cpu.fetch.nisnDist::6                   686473      1.10%     86.73% # Number of instructions fetched each cycle (Total) (Count)
system.cpu.fetch.nisnDist::7                   735143      1.18%     87.91% # Number of instructions fetched each cycle (Total) (Count)
system.cpu.fetch.nisnDist::8                  7549046     12.09%    100.00% # Number of instructions fetched each cycle (Total) (Count)
system.cpu.fetch.nisnDist::overflows                0      0.00%    100.00% # Number of instructions fetched each cycle (Total) (Count)
system.cpu.fetch.nisnDist::min_value                0                       # Number of instructions fetched each cycle (Total) (Count)
system.cpu.fetch.nisnDist::max_value                8                       # Number of instructions fetched each cycle (Total) (Count)
system.cpu.fetch.nisnDist::total             62427010                       # Number of instructions fetched each cycle (Total) (Count)
system.cpu.fetch.branchRate                  0.152335                       # Number of branch fetches per cycle (Ratio)
system.cpu.fetch.rate                        0.723547                       # Number of inst fetches per cycle ((Count/Cycle))
system.cpu.icache.demandHits::cpu.inst        6474051                       # number of demand (read+write) hits (Count)
system.cpu.icache.demandHits::total           6474051                       # number of demand (read+write) hits (Count)
system.cpu.icache.overallHits::cpu.inst       6474051                       # number of overall hits (Count)
system.cpu.icache.overallHits::total          6474051                       # number of overall hits (Count)
system.cpu.icache.demandMisses::cpu.inst        51505                       # number of demand (read+write) misses (Count)
system.cpu.icache.demandMisses::total           51505                       # number of demand (read+write) misses (Count)
system.cpu.icache.overallMisses::cpu.inst        51505                       # number of overall misses (Count)
system.cpu.icache.overallMisses::total          51505                       # number of overall misses (Count)
system.cpu.icache.demandMissLatency::cpu.inst   2069357498                       # number of demand (read+write) miss ticks (Tick)
system.cpu.icache.demandMissLatency::total   2069357498                       # number of demand (read+write) miss ticks (Tick)
system.cpu.icache.overallMissLatency::cpu.inst   2069357498                       # number of overall miss ticks (Tick)
system.cpu.icache.overallMissLatency::total   2069357498                       # number of overall miss ticks (Tick)
system.cpu.icache.demandAccesses::cpu.inst      6525556                       # number of demand (read+write) accesses (Count)
system.cpu.icache.demandAccesses::total       6525556                       # number of demand (read+write) accesses (Count)
system.cpu.icache.overallAccesses::cpu.inst      6525556                       # number of overall (read+write) accesses (Count)
system.cpu.icache.overallAccesses::total      6525556                       # number of overall (read+write) accesses (Count)
system.cpu.icache.demandMissRate::cpu.inst     0.007893                       # miss rate for demand accesses (Ratio)
system.cpu.icache.demandMissRate::total      0.007893                       # miss rate for demand accesses (Ratio)
system.cpu.icache.overallMissRate::cpu.inst     0.007893                       # miss rate for overall accesses (Ratio)
system.cpu.icache.overallMissRate::total     0.007893                       # miss rate for overall accesses (Ratio)
system.cpu.icache.demandAvgMissLatency::cpu.inst 40177.798233                       # average overall miss latency ((Cycle/Count))
system.cpu.icache.demandAvgMissLatency::total 40177.798233                       # average overall miss latency ((Cycle/Count))
system.cpu.icache.overallAvgMissLatency::cpu.inst 40177.798233                       # average overall miss latency ((Cycle/Count))
system.cpu.icache.overallAvgMissLatency::total 40177.798233                       # average overall miss latency ((Cycle/Count))
system.cpu.icache.blockedCycles::no_mshrs          470                       # number of cycles access was blocked (Cycle)
system.cpu.icache.blockedCycles::no_targets            0                       # number of cycles access was blocked (Cycle)
system.cpu.icache.blockedCauses::no_mshrs            9                       # number of times access was blocked (Count)
system.cpu.icache.blockedCauses::no_targets            0                       # number of times access was blocked (Count)
system.cpu.icache.avgBlocked::no_mshrs      52.222222                       # average number of cycles each access was blocked ((Cycle/Count))
system.cpu.icache.avgBlocked::no_targets          nan                       # average number of cycles each access was blocked ((Cycle/Count))
system.cpu.icache.writebacks::writebacks        49875                       # number of writebacks (Count)
system.cpu.icache.writebacks::total             49875                       # number of writebacks (Count)
system.cpu.icache.demandMshrHits::cpu.inst         1128                       # number of demand (read+write) MSHR hits (Count)
system.cpu.icache.demandMshrHits::total          1128                       # number of demand (read+write) MSHR hits (Count)
system.cpu.icache.overallMshrHits::cpu.inst         1128                       # number of overall MSHR hits (Count)
system.cpu.icache.overallMshrHits::total         1128                       # number of overall MSHR hits (Count)
system.cpu.icache.demandMshrMisses::cpu.inst        50377                       # number of demand (read+write) MSHR misses (Count)
system.cpu.icache.demandMshrMisses::total        50377                       # number of demand (read+write) MSHR misses (Count)
system.cpu.icache.overallMshrMisses::cpu.inst        50377                       # number of overall MSHR misses (Count)
system.cpu.icache.overallMshrMisses::total        50377                       # number of overall MSHR misses (Count)
system.cpu.icache.demandMshrMissLatency::cpu.inst   1979425998                       # number of demand (read+write) MSHR miss ticks (Tick)
system.cpu.icache.demandMshrMissLatency::total   1979425998                       # number of demand (read+write) MSHR miss ticks (Tick)
system.cpu.icache.overallMshrMissLatency::cpu.inst   1979425998                       # number of overall MSHR miss ticks (Tick)
system.cpu.icache.overallMshrMissLatency::total   1979425998                       # number of overall MSHR miss ticks (Tick)
system.cpu.icache.demandMshrMissRate::cpu.inst     0.007720                       # mshr miss ratio for demand accesses (Ratio)
system.cpu.icache.demandMshrMissRate::total     0.007720                       # mshr miss ratio for demand accesses (Ratio)
system.cpu.icache.overallMshrMissRate::cpu.inst     0.007720                       # mshr miss ratio for overall accesses (Ratio)
system.cpu.icache.overallMshrMissRate::total     0.007720                       # mshr miss ratio for overall accesses (Ratio)
system.cpu.icache.demandAvgMshrMissLatency::cpu.inst 39292.256347                       # average overall mshr miss latency ((Cycle/Count))
system.cpu.icache.demandAvgMshrMissLatency::total 39292.256347                       # average overall mshr miss latency ((Cycle/Count))
system.cpu.icache.overallAvgMshrMissLatency::cpu.inst 39292.256347                       # average overall mshr miss latency ((Cycle/Count))
system.cpu.icache.overallAvgMshrMissLatency::total 39292.256347                       # average overall mshr miss latency ((Cycle/Count))
system.cpu.icache.replacements                  49875                       # number of replacements (Count)
system.cpu.icache.ReadReq.hits::cpu.inst      6474051                       # number of ReadReq hits (Count)
system.cpu.icache.ReadReq.hits::total         6474051                       # number of ReadReq hits (Count)
system.cpu.icache.ReadReq.misses::cpu.inst        51505                       # number of ReadReq misses (Count)
system.cpu.icache.ReadReq.misses::total         51505                       # number of ReadReq misses (Count)
system.cpu.icache.ReadReq.missLatency::cpu.inst   2069357498                       # number of ReadReq miss ticks (Tick)
system.cpu.icache.ReadReq.missLatency::total   2069357498                       # number of ReadReq miss ticks (Tick)
system.cpu.icache.ReadReq.accesses::cpu.inst      6525556                       # number of ReadReq accesses(hits+misses) (Count)
system.cpu.icache.ReadReq.accesses::total      6525556                       # number of ReadReq accesses(hits+misses) (Count)
system.cpu.icache.ReadReq.missRate::cpu.inst     0.007893                       # miss rate for ReadReq accesses (Ratio)
system.cpu.icache.ReadReq.missRate::total     0.007893                       # miss rate for ReadReq accesses (Ratio)
system.cpu.icache.ReadReq.avgMissLatency::cpu.inst 40177.798233                       # average ReadReq miss latency ((Tick/Count))
system.cpu.icache.ReadReq.avgMissLatency::total 40177.798233                       # average ReadReq miss latency ((Tick/Count))
system.cpu.icache.ReadReq.mshrHits::cpu.inst         1128                       # number of ReadReq MSHR hits (Count)
system.cpu.icache.ReadReq.mshrHits::total         1128                       # number of ReadReq MSHR hits (Count)
system.cpu.icache.ReadReq.mshrMisses::cpu.inst        50377                       # number of ReadReq MSHR misses (Count)
system.cpu.icache.ReadReq.mshrMisses::total        50377                       # number of ReadReq MSHR misses (Count)
system.cpu.icache.ReadReq.mshrMissLatency::cpu.inst   1979425998                       # number of ReadReq MSHR miss ticks (Tick)
system.cpu.icache.ReadReq.mshrMissLatency::total   1979425998                       # number of ReadReq MSHR miss ticks (Tick)
system.cpu.icache.ReadReq.mshrMissRate::cpu.inst     0.007720                       # mshr miss rate for ReadReq accesses (Ratio)
system.cpu.icache.ReadReq.mshrMissRate::total     0.007720                       # mshr miss rate for ReadReq accesses (Ratio)
system.cpu.icache.ReadReq.avgMshrMissLatency::cpu.inst 39292.256347                       # average ReadReq mshr miss latency ((Tick/Count))
system.cpu.icache.ReadReq.avgMshrMissLatency::total 39292.256347                       # average ReadReq mshr miss latency ((Tick/Count))
system.cpu.icache.power_state.pwrStateResidencyTicks::UNDEFINED  31690600500                       # Cumulative time (in ticks) in various power states (Tick)
system.cpu.icache.tags.tagsInUse           464.661456                       # Average ticks per tags in use ((Tick/Count))
system.cpu.icache.tags.totalRefs              6524428                       # Total number of references to valid blocks. (Count)
system.cpu.icache.tags.sampledRefs              50377                       # Sample count of references to valid blocks. (Count)
system.cpu.icache.tags.avgRefs             129.512039                       # Average number of references to valid blocks. ((Count/Count))
system.cpu.icache.tags.warmupTick               77000                       # The tick when the warmup percentage was hit. (Tick)
system.cpu.icache.tags.occupancies::cpu.inst   464.661456                       # Average occupied blocks per tick, per requestor ((Count/Tick))
system.cpu.icache.tags.avgOccs::cpu.inst     0.907542                       # Average percentage of cache occupancy ((Ratio/Tick))
system.cpu.icache.tags.avgOccs::total        0.907542                       # Average percentage of cache occupancy ((Ratio/Tick))
system.cpu.icache.tags.occupanciesTaskId::1024          501                       # Occupied blocks per task id (Count)
system.cpu.icache.tags.ageTaskId_1024::0          123                       # Occupied blocks per task id, per block age (Count)
system.cpu.icache.tags.ageTaskId_1024::2           24                       # Occupied blocks per task id, per block age (Count)
system.cpu.icache.tags.ageTaskId_1024::3           82                       # Occupied blocks per task id, per block age (Count)
system.cpu.icache.tags.ageTaskId_1024::4          272                       # Occupied blocks per task id, per block age (Count)
system.cpu.icache.tags.ratioOccsTaskId::1024     0.978516                       # Ratio of occupied blocks and all blocks, per task id (Ratio)
system.cpu.icache.tags.tagAccesses           13101489                       # Number of tag accesses (Count)
system.cpu.icache.tags.dataAccesses          13101489                       # Number of data accesses (Count)
system.cpu.icache.tags.power_state.pwrStateResidencyTicks::UNDEFINED  31690600500                       # Cumulative time (in ticks) in various power states (Tick)
system.cpu.iew.idleCycles                           0                       # Number of cycles IEW is idle (Cycle)
system.cpu.iew.squashCycles                    159006                       # Number of cycles IEW is squashing (Cycle)
system.cpu.iew.blockCycles                    8780131                       # Number of cycles IEW is blocking (Cycle)
system.cpu.iew.unblockCycles                  4006262                       # Number of cycles IEW is unblocking (Cycle)
system.cpu.iew.dispatchedInsts               83630529                       # Number of instructions dispatched to IQ (Count)
system.cpu.iew.dispSquashedInsts                75467                       # Number of squashed instructions skipped by dispatch (Count)
system.cpu.iew.dispLoadInsts                 11770364                       # Number of dispatched load instructions (Count)
system.cpu.iew.dispStoreInsts                 6452964                       # Number of dispatched store instructions (Count)
system.cpu.iew.dispNonSpecInsts                    27                       # Number of dispatched non-speculative instructions (Count)
system.cpu.iew.iqFullEvents                    165416                       # Number of times the IQ has become full, causing a stall (Count)
system.cpu.iew.lsqFullEvents                  3746770                       # Number of times the LSQ has become full, causing a stall (Count)
system.cpu.iew.memOrderViolationEvents           2348                       # Number of memory order violations (Count)
system.cpu.iew.predictedTakenIncorrect          75622                       # Number of branches that were predicted taken incorrectly (Count)
system.cpu.iew.predictedNotTakenIncorrect       107139                       # Number of branches that were predicted not taken incorrectly (Count)
system.cpu.iew.branchMispredicts               182761                       # Number of branch mispredicts detected at execute (Count)
system.cpu.iew.instsToCommit                 81487887                       # Cumulative count of insts sent to commit (Count)
system.cpu.iew.writebackCount                81454269                       # Cumulative count of insts written-back (Count)
system.cpu.iew.producerInst                  56705775                       # Number of instructions producing a value (Count)
system.cpu.iew.consumerInst                  96140985                       # Number of instructions consuming a value (Count)
system.cpu.iew.wbRate                        1.285149                       # Insts written-back per cycle ((Count/Cycle))
system.cpu.iew.wbFanout                      0.589819                       # Average fanout of values written-back ((Count/Count))
system.cpu.interrupts.clk_domain.clock           8000                       # Clock period in ticks (Tick)
system.cpu.itb_walker_cache.blockedCycles::no_mshrs            0                       # number of cycles access was blocked (Cycle)
system.cpu.itb_walker_cache.blockedCycles::no_targets            0                       # number of cycles access was blocked (Cycle)
system.cpu.itb_walker_cache.blockedCauses::no_mshrs            0                       # number of times access was blocked (Count)
system.cpu.itb_walker_cache.blockedCauses::no_targets            0                       # number of times access was blocked (Count)
system.cpu.itb_walker_cache.avgBlocked::no_mshrs          nan                       # average number of cycles each access was blocked ((Cycle/Count))
system.cpu.itb_walker_cache.avgBlocked::no_targets          nan                       # average number of cycles each access was blocked ((Cycle/Count))
system.cpu.itb_walker_cache.replacements            0                       # number of replacements (Count)
system.cpu.itb_walker_cache.power_state.pwrStateResidencyTicks::UNDEFINED  31690600500                       # Cumulative time (in ticks) in various power states (Tick)
system.cpu.itb_walker_cache.tags.tagsInUse            0                       # Average ticks per tags in use ((Tick/Count))
system.cpu.itb_walker_cache.tags.totalRefs            0                       # Total number of references to valid blocks. (Count)
system.cpu.itb_walker_cache.tags.sampledRefs            0                       # Sample count of references to valid blocks. (Count)
system.cpu.itb_walker_cache.tags.avgRefs          nan                       # Average number of references to valid blocks. ((Count/Count))
system.cpu.itb_walker_cache.tags.warmupTick            0                       # The tick when the warmup percentage was hit. (Tick)
system.cpu.itb_walker_cache.tags.tagAccesses            0                       # Number of tag accesses (Count)
system.cpu.itb_walker_cache.tags.dataAccesses            0                       # Number of data accesses (Count)
system.cpu.itb_walker_cache.tags.power_state.pwrStateResidencyTicks::UNDEFINED  31690600500                       # Cumulative time (in ticks) in various power states (Tick)
system.cpu.lsq0.forwLoads                     3872348                       # Number of loads that had data forwarded from stores (Count)
system.cpu.lsq0.squashedLoads                  652488                       # Number of loads squashed (Count)
system.cpu.lsq0.ignoredResponses                  447                       # Number of memory responses ignored because the instruction is squashed (Count)
system.cpu.lsq0.memOrderViolation                2348                       # Number of memory ordering violations (Count)
system.cpu.lsq0.squashedStores                 389940                       # Number of stores squashed (Count)
system.cpu.lsq0.rescheduledLoads                    3                       # Number of loads that were rescheduled (Count)
system.cpu.lsq0.blockedByCache                  59034                       # Number of times an access to memory failed due to the cache being blocked (Count)
system.cpu.lsq0.loadToUse::samples           11117876                       # Distribution of cycle latency between the first time a load is issued and its completion (Unspecified)
system.cpu.lsq0.loadToUse::mean             14.465049                       # Distribution of cycle latency between the first time a load is issued and its completion (Unspecified)
system.cpu.lsq0.loadToUse::stdev            38.731633                       # Distribution of cycle latency between the first time a load is issued and its completion (Unspecified)
system.cpu.lsq0.loadToUse::0-9                9779751     87.96%     87.96% # Distribution of cycle latency between the first time a load is issued and its completion (Unspecified)
system.cpu.lsq0.loadToUse::10-19                66086      0.59%     88.56% # Distribution of cycle latency between the first time a load is issued and its completion (Unspecified)
system.cpu.lsq0.loadToUse::20-29                10884      0.10%     88.66% # Distribution of cycle latency between the first time a load is issued and its completion (Unspecified)
system.cpu.lsq0.loadToUse::30-39                25567      0.23%     88.89% # Distribution of cycle latency between the first time a load is issued and its completion (Unspecified)
system.cpu.lsq0.loadToUse::40-49               145714      1.31%     90.20% # Distribution of cycle latency between the first time a load is issued and its completion (Unspecified)
system.cpu.lsq0.loadToUse::50-59               134439      1.21%     91.41% # Distribution of cycle latency between the first time a load is issued and its completion (Unspecified)
system.cpu.lsq0.loadToUse::60-69                19762      0.18%     91.58% # Distribution of cycle latency between the first time a load is issued and its completion (Unspecified)
[...]
system.mem_ctrls.dram.bwWrite::total        760503102                       # Write bandwidth from this memory ((Byte/Second))
system.mem_ctrls.dram.bwTotal::writebacks    760503102                       # Total bandwidth to/from this memory ((Byte/Second))
system.mem_ctrls.dram.bwTotal::cpu.inst     101733635                       # Total bandwidth to/from this memory ((Byte/Second))
system.mem_ctrls.dram.bwTotal::cpu.data    2196107581                       # Total bandwidth to/from this memory ((Byte/Second))
system.mem_ctrls.dram.bwTotal::total       3058344319                       # Total bandwidth to/from this memory ((Byte/Second))
system.mem_ctrls.dram.readBursts               756372                       # Number of DRAM read bursts (Count)
system.mem_ctrls.dram.writeBursts              143441                       # Number of DRAM write bursts (Count)
system.mem_ctrls.dram.perBankRdBursts::0        13496                       # Per bank write bursts (Count)
system.mem_ctrls.dram.perBankRdBursts::1        67823                       # Per bank write bursts (Count)
system.mem_ctrls.dram.perBankRdBursts::2        89379                       # Per bank write bursts (Count)
system.mem_ctrls.dram.perBankRdBursts::3       150021                       # Per bank write bursts (Count)
system.mem_ctrls.dram.perBankRdBursts::4        64850                       # Per bank write bursts (Count)
system.mem_ctrls.dram.perBankRdBursts::5         2045                       # Per bank write bursts (Count)
system.mem_ctrls.dram.perBankRdBursts::6        44729                       # Per bank write bursts (Count)
system.mem_ctrls.dram.perBankRdBursts::7        18636                       # Per bank write bursts (Count)
system.mem_ctrls.dram.perBankRdBursts::8       132527                       # Per bank write bursts (Count)
system.mem_ctrls.dram.perBankRdBursts::9         9534                       # Per bank write bursts (Count)
system.mem_ctrls.dram.perBankRdBursts::10        64451                       # Per bank write bursts (Count)
system.mem_ctrls.dram.perBankRdBursts::11        63933                       # Per bank write bursts (Count)
system.mem_ctrls.dram.perBankRdBursts::12         1779                       # Per bank write bursts (Count)
system.mem_ctrls.dram.perBankRdBursts::13        12819                       # Per bank write bursts (Count)
system.mem_ctrls.dram.perBankRdBursts::14         7876                       # Per bank write bursts (Count)
system.mem_ctrls.dram.perBankRdBursts::15        12474                       # Per bank write bursts (Count)
system.mem_ctrls.dram.perBankWrBursts::0          605                       # Per bank write bursts (Count)
system.mem_ctrls.dram.perBankWrBursts::1         7815                       # Per bank write bursts (Count)
system.mem_ctrls.dram.perBankWrBursts::2          580                       # Per bank write bursts (Count)
system.mem_ctrls.dram.perBankWrBursts::3          618                       # Per bank write bursts (Count)
system.mem_ctrls.dram.perBankWrBursts::4          571                       # Per bank write bursts (Count)
system.mem_ctrls.dram.perBankWrBursts::5          621                       # Per bank write bursts (Count)
system.mem_ctrls.dram.perBankWrBursts::6          539                       # Per bank write bursts (Count)
system.mem_ctrls.dram.perBankWrBursts::7          604                       # Per bank write bursts (Count)
system.mem_ctrls.dram.perBankWrBursts::8          589                       # Per bank write bursts (Count)
system.mem_ctrls.dram.perBankWrBursts::9          849                       # Per bank write bursts (Count)
system.mem_ctrls.dram.perBankWrBursts::10        94802                       # Per bank write bursts (Count)
system.mem_ctrls.dram.perBankWrBursts::11         8897                       # Per bank write bursts (Count)
system.mem_ctrls.dram.perBankWrBursts::12          512                       # Per bank write bursts (Count)
system.mem_ctrls.dram.perBankWrBursts::13        12600                       # Per bank write bursts (Count)
system.mem_ctrls.dram.perBankWrBursts::14          602                       # Per bank write bursts (Count)
system.mem_ctrls.dram.perBankWrBursts::15        12637                       # Per bank write bursts (Count)
system.mem_ctrls.dram.totQLat              7128677000                       # Total ticks spent queuing (Tick)
system.mem_ctrls.dram.totBusLat            3781860000                       # Total ticks spent in databus transfers (Tick)
system.mem_ctrls.dram.totMemAccLat        21310652000                       # Total ticks spent from burst creation until serviced by the DRAM (Tick)
system.mem_ctrls.dram.avgQLat                 9424.83                       # Average queueing delay per DRAM burst ((Tick/Count))
system.mem_ctrls.dram.avgBusLat               5000.00                       # Average bus latency per DRAM burst ((Tick/Count))
system.mem_ctrls.dram.avgMemAccLat           28174.83                       # Average memory access latency per DRAM burst ((Tick/Count))
system.mem_ctrls.dram.readRowHits              649373                       # Number of row buffer hits during reads (Count)
system.mem_ctrls.dram.writeRowHits             133183                       # Number of row buffer hits during writes (Count)
system.mem_ctrls.dram.readRowHitRate            85.85                       # Row buffer hit rate for reads (Ratio)
system.mem_ctrls.dram.writeRowHitRate           92.85                       # Row buffer hit rate for writes (Ratio)
system.mem_ctrls.dram.bytesPerActivate::samples       117253                       # Bytes accessed per row activation (Byte)
system.mem_ctrls.dram.bytesPerActivate::mean   491.140628                       # Bytes accessed per row activation (Byte)
system.mem_ctrls.dram.bytesPerActivate::gmean   327.442613                       # Bytes accessed per row activation (Byte)
system.mem_ctrls.dram.bytesPerActivate::stdev   383.700874                       # Bytes accessed per row activation (Byte)
system.mem_ctrls.dram.bytesPerActivate::0-127        15654     13.35%     13.35% # Bytes accessed per row activation (Byte)
system.mem_ctrls.dram.bytesPerActivate::128-255        29895     25.50%     38.85% # Bytes accessed per row activation (Byte)
system.mem_ctrls.dram.bytesPerActivate::256-383        14875     12.69%     51.53% # Bytes accessed per row activation (Byte)
system.mem_ctrls.dram.bytesPerActivate::384-511        11808     10.07%     61.60% # Bytes accessed per row activation (Byte)
system.mem_ctrls.dram.bytesPerActivate::512-639         3959      3.38%     64.98% # Bytes accessed per row activation (Byte)
system.mem_ctrls.dram.bytesPerActivate::640-767         1641      1.40%     66.38% # Bytes accessed per row activation (Byte)
system.mem_ctrls.dram.bytesPerActivate::768-895         2609      2.23%     68.60% # Bytes accessed per row activation (Byte)
system.mem_ctrls.dram.bytesPerActivate::896-1023         3917      3.34%     71.95% # Bytes accessed per row activation (Byte)
system.mem_ctrls.dram.bytesPerActivate::1024-1151        32895     28.05%    100.00% # Bytes accessed per row activation (Byte)
system.mem_ctrls.dram.bytesPerActivate::total       117253                       # Bytes accessed per row activation (Byte)
system.mem_ctrls.dram.bytesRead              48407808                       # Total bytes read (Byte)
system.mem_ctrls.dram.bytesWritten            9180224                       # Total bytes written (Byte)
system.mem_ctrls.dram.avgRdBW             1527.513119                       # Average DRAM read bandwidth in MiBytes/s ((Byte/Second))
system.mem_ctrls.dram.avgWrBW              289.682867                       # Average DRAM write bandwidth in MiBytes/s ((Byte/Second))
system.mem_ctrls.dram.peakBW                 12800.00                       # Theoretical peak bandwidth in MiByte/s ((Byte/Second))
system.mem_ctrls.dram.busUtil                   14.20                       # Data bus utilization in percentage (Ratio)
system.mem_ctrls.dram.busUtilRead               11.93                       # Data bus utilization in percentage for reads (Ratio)
system.mem_ctrls.dram.busUtilWrite               2.26                       # Data bus utilization in percentage for writes (Ratio)
system.mem_ctrls.dram.pageHitRate               86.97                       # Row buffer hit rate, read and write combined (Ratio)
system.mem_ctrls.dram.power_state.pwrStateResidencyTicks::UNDEFINED  31690600500                       # Cumulative time (in ticks) in various power states (Tick)
system.mem_ctrls.dram.rank0.actEnergy       376335120                       # Energy for activate commands per rank (pJ) (Joule)
system.mem_ctrls.dram.rank0.preEnergy       200019270                       # Energy for precharge commands per rank (pJ) (Joule)
system.mem_ctrls.dram.rank0.readEnergy     3219990060                       # Energy for read commands per rank (pJ) (Joule)
system.mem_ctrls.dram.rank0.writeEnergy      62394660                       # Energy for write commands per rank (pJ) (Joule)
system.mem_ctrls.dram.rank0.refreshEnergy 2501584800.000000                       # Energy for refresh commands per rank (pJ) (Joule)
system.mem_ctrls.dram.rank0.actBackEnergy  14093458050                       # Energy for active background per rank (pJ) (Joule)
system.mem_ctrls.dram.rank0.preBackEnergy    301015680                       # Energy for precharge background per rank (pJ) (Joule)
system.mem_ctrls.dram.rank0.actPowerDownEnergy            0                       # Energy for active power-down per rank (pJ) (Joule)
system.mem_ctrls.dram.rank0.prePowerDownEnergy            0                       # Energy for precharge power-down per rank (pJ) (Joule)
system.mem_ctrls.dram.rank0.selfRefreshEnergy            0                       # Energy for self refresh per rank (pJ) (Joule)
system.mem_ctrls.dram.rank0.totalEnergy   20754797640                       # Total energy per rank (pJ) (Joule)
system.mem_ctrls.dram.rank0.averagePower   654.919671                       # Core power per rank (mW) (Watt)
system.mem_ctrls.dram.rank0.totalIdleTime            0                       # Total Idle time Per DRAM Rank (Tick)
system.mem_ctrls.dram.rank0.pwrStateTime::IDLE    670178000                       # Time in different power states (Tick)
system.mem_ctrls.dram.rank0.pwrStateTime::REF   1058200000                       # Time in different power states (Tick)
system.mem_ctrls.dram.rank0.pwrStateTime::SREF            0                       # Time in different power states (Tick)
system.mem_ctrls.dram.rank0.pwrStateTime::PRE_PDN            0                       # Time in different power states (Tick)
system.mem_ctrls.dram.rank0.pwrStateTime::ACT  29962222500                       # Time in different power states (Tick)
system.mem_ctrls.dram.rank0.pwrStateTime::ACT_PDN            0                       # Time in different power states (Tick)
system.mem_ctrls.dram.rank1.actEnergy       460879860                       # Energy for activate commands per rank (pJ) (Joule)
system.mem_ctrls.dram.rank1.preEnergy       244955865                       # Energy for precharge commands per rank (pJ) (Joule)
system.mem_ctrls.dram.rank1.readEnergy     2180506020                       # Energy for read commands per rank (pJ) (Joule)
system.mem_ctrls.dram.rank1.writeEnergy     686367360                       # Energy for write commands per rank (pJ) (Joule)
system.mem_ctrls.dram.rank1.refreshEnergy 2501584800.000000                       # Energy for refresh commands per rank (pJ) (Joule)
system.mem_ctrls.dram.rank1.actBackEnergy  13791988470                       # Energy for active background per rank (pJ) (Joule)
system.mem_ctrls.dram.rank1.preBackEnergy    554884800                       # Energy for precharge background per rank (pJ) (Joule)
system.mem_ctrls.dram.rank1.actPowerDownEnergy            0                       # Energy for active power-down per rank (pJ) (Joule)
system.mem_ctrls.dram.rank1.prePowerDownEnergy            0                       # Energy for precharge power-down per rank (pJ) (Joule)
system.mem_ctrls.dram.rank1.selfRefreshEnergy            0                       # Energy for self refresh per rank (pJ) (Joule)
system.mem_ctrls.dram.rank1.totalEnergy   20421167175                       # Total energy per rank (pJ) (Joule)
system.mem_ctrls.dram.rank1.averagePower   644.391929                       # Core power per rank (mW) (Watt)
system.mem_ctrls.dram.rank1.totalIdleTime            0                       # Total Idle time Per DRAM Rank (Tick)
system.mem_ctrls.dram.rank1.pwrStateTime::IDLE   1314219000                       # Time in different power states (Tick)
system.mem_ctrls.dram.rank1.pwrStateTime::REF   1058200000                       # Time in different power states (Tick)
system.mem_ctrls.dram.rank1.pwrStateTime::SREF            0                       # Time in different power states (Tick)
system.mem_ctrls.dram.rank1.pwrStateTime::PRE_PDN            0                       # Time in different power states (Tick)
system.mem_ctrls.dram.rank1.pwrStateTime::ACT  29318181500                       # Time in different power states (Tick)
system.mem_ctrls.dram.rank1.pwrStateTime::ACT_PDN            0                       # Time in different power states (Tick)
system.mem_ctrls.power_state.pwrStateResidencyTicks::UNDEFINED  31690600500                       # Cumulative time (in ticks) in various power states (Tick)
system.membus.transDist::ReadResp              866957                       # Transaction distribution (Count)
system.membus.transDist::WritebackDirty        376575                       # Transaction distribution (Count)
system.membus.transDist::WritebackClean         49875                       # Transaction distribution (Count)
system.membus.transDist::CleanEvict            710846                       # Transaction distribution (Count)
system.membus.transDist::ReadExReq             270857                       # Transaction distribution (Count)
system.membus.transDist::ReadExResp            270857                       # Transaction distribution (Count)
system.membus.transDist::ReadCleanReq           50377                       # Transaction distribution (Count)
system.membus.transDist::ReadSharedReq         816580                       # Transaction distribution (Count)
system.membus.pktCount_system.cpu.icache.mem_side_port::system.mem_ctrls.port       150627                       # Packet count per connected requestor and responder (Count)
system.membus.pktCount_system.cpu.icache.mem_side_port::total       150627                       # Packet count per connected requestor and responder (Count)
system.membus.pktCount_system.cpu.dcache.mem_side_port::system.mem_ctrls.port      3262295                       # Packet count per connected requestor and responder (Count)
system.membus.pktCount_system.cpu.dcache.mem_side_port::total      3262295                       # Packet count per connected requestor and responder (Count)
system.membus.pktCount::total                 3412922                       # Packet count per connected requestor and responder (Count)
system.membus.pktSize_system.cpu.icache.mem_side_port::system.mem_ctrls.port      6416000                       # Cumulative packet size per connected requestor and responder (Byte)
system.membus.pktSize_system.cpu.icache.mem_side_port::total      6416000                       # Cumulative packet size per connected requestor and responder (Byte)
system.membus.pktSize_system.cpu.dcache.mem_side_port::system.mem_ctrls.port     93696768                       # Cumulative packet size per connected requestor and responder (Byte)
system.membus.pktSize_system.cpu.dcache.mem_side_port::total     93696768                       # Cumulative packet size per connected requestor and responder (Byte)
system.membus.pktSize::total                100112768                       # Cumulative packet size per connected requestor and responder (Byte)
system.membus.snoops                                2                       # Total snoops (Count)
system.membus.snoopTraffic                        128                       # Total snoop traffic (Byte)
system.membus.snoopFanout::samples            1137814                       # Request fanout histogram (Count)
system.membus.snoopFanout::mean              0.000016                       # Request fanout histogram (Count)
system.membus.snoopFanout::stdev             0.003977                       # Request fanout histogram (Count)
system.membus.snoopFanout::underflows               0      0.00%      0.00% # Request fanout histogram (Count)
system.membus.snoopFanout::0                  1137796    100.00%    100.00% # Request fanout histogram (Count)
system.membus.snoopFanout::1                       18      0.00%    100.00% # Request fanout histogram (Count)
system.membus.snoopFanout::2                        0      0.00%    100.00% # Request fanout histogram (Count)
system.membus.snoopFanout::3                        0      0.00%    100.00% # Request fanout histogram (Count)
system.membus.snoopFanout::4                        0      0.00%    100.00% # Request fanout histogram (Count)
system.membus.snoopFanout::overflows                0      0.00%    100.00% # Request fanout histogram (Count)
system.membus.snoopFanout::min_value                0                       # Request fanout histogram (Count)
system.membus.snoopFanout::max_value                1                       # Request fanout histogram (Count)
system.membus.snoopFanout::total              1137814                       # Request fanout histogram (Count)
system.membus.power_state.pwrStateResidencyTicks::UNDEFINED  31690600500                       # Cumulative time (in ticks) in various power states (Tick)
system.membus.reqLayer2.occupancy          4177726500                       # Layer occupancy (ticks) (Tick)
system.membus.reqLayer2.utilization               0.1                       # Layer utilization (Ratio)
system.membus.respLayer1.occupancy          259156619                       # Layer occupancy (ticks) (Tick)
system.membus.respLayer1.utilization              0.0                       # Layer utilization (Ratio)
system.membus.respLayer2.occupancy         5637021997                       # Layer occupancy (ticks) (Tick)
system.membus.respLayer2.utilization              0.2                       # Layer utilization (Ratio)
system.membus.snoop_filter.totRequests        2275110                       # Total number of requests made to the snoop filter. (Count)
system.membus.snoop_filter.hitSingleRequests      1137297                       # Number of requests hitting in the snoop filter with a single holder of the requested data. (Count)
system.membus.snoop_filter.hitMultiRequests           17                       # Number of requests hitting in the snoop filter with multiple (>1) holders of the requested data. (Count)
system.membus.snoop_filter.totSnoops                0                       # Total number of snoops made to the snoop filter. (Count)
system.membus.snoop_filter.hitSingleSnoops            0                       # Number of snoops hitting in the snoop filter with a single holder of the requested data. (Count)
system.membus.snoop_filter.hitMultiSnoops            0                       # Number of snoops hitting in the snoop filter with multiple (>1) holders of the requested data. (Count)
system.voltage_domain.voltage                       1                       # Voltage in Volts (Volt)
system.workload.inst.arm                            0                       # number of arm instructions executed (Count)
system.workload.inst.quiesce                        0                       # number of quiesce instructions executed (Count)

---------- End Simulation Statistics   ----------
