
---------- Begin Simulation Statistics ----------
simSeconds                                   0.018025                       # Number of seconds simulated (Second)
simTicks                                  18024843500                       # Number of ticks simulated (Tick)
finalTick                                 18024843500                       # Number of ticks from beginning of simulation (restored from checkpoints and never reset) (Tick)
simFreq                                  1000000000000                       # The number of ticks per simulated second ((Tick/Second))
hostSeconds                                    106.34                       # Real time elapsed on the host (Second)
hostTickRate                                169504572                       # The number of ticks simulated per host second (ticks/s) ((Tick/Second))
hostMemory                                     664880                       # Number of bytes of host memory used (Byte)
simInsts                                     41289468                       # Number of instructions simulated (Count)
simOps                                       78315814                       # Number of ops (including micro ops) simulated (Count)
hostInstRate                                   388283                       # Simulator instruction rate (inst/s) ((Count/Second))
hostOpRate                                     736477                       # Simulator op (including micro ops) rate (op/s) ((Count/Second))
system.clk_domain.clock                          1000                       # Clock period in ticks (Tick)
system.cpu.numCycles                         36049688                       # Number of cpu cycles simulated (Cycle)
system.cpu.numWorkItemsStarted                      0                       # Number of work items this cpu started (Count)
system.cpu.numWorkItemsCompleted                    0                       # Number of work items this cpu completed (Count)
system.cpu.instsAdded                        82696721                       # Number of instructions added to the IQ (excludes non-spec) (Count)
system.cpu.nonSpecInstsAdded                       57                       # Number of non-speculative instructions added to the IQ (Count)
system.cpu.instsIssued                       81113284                       # Number of instructions issued (Count)
system.cpu.squashedInstsIssued                  42765                       # Number of squashed instructions issued (Count)
system.cpu.squashedInstsExamined              4380958                       # Number of squashed instructions iterated over during squash; mainly for profiling (Count)
system.cpu.squashedOperandsExamined           6709308                       # Number of squashed operands that are examined and possibly removed from graph (Count)
system.cpu.squashedNonSpecRemoved                  39                       # Number of squashed non-spec instructions that were removed (Count)
system.cpu.numIssuedDist::samples            35303134                       # Number of insts issued each cycle (Count)
system.cpu.numIssuedDist::mean               2.297623                       # Number of insts issued each cycle (Count)
system.cpu.numIssuedDist::stdev              2.324512                       # Number of insts issued each cycle (Count)
system.cpu.numIssuedDist::underflows                0      0.00%      0.00% # Number of insts issued each cycle (Count)
system.cpu.numIssuedDist::0                  12704167     35.99%     35.99% # Number of insts issued each cycle (Count)
system.cpu.numIssuedDist::1                   3476064      9.85%     45.83% # Number of insts issued each cycle (Count)
system.cpu.numIssuedDist::2                   4849801     13.74%     59.57% # Number of insts issued each cycle (Count)
system.cpu.numIssuedDist::3                   3509093      9.94%     69.51% # Number of insts issued each cycle (Count)
system.cpu.numIssuedDist::4                   3551452     10.06%     79.57% # Number of insts issued each cycle (Count)
system.cpu.numIssuedDist::5                   2806371      7.95%     87.52% # Number of insts issued each cycle (Count)
system.cpu.numIssuedDist::6                   2419890      6.85%     94.37% # Number of insts issued each cycle (Count)
system.cpu.numIssuedDist::7                   1237032      3.50%     97.88% # Number of insts issued each cycle (Count)
system.cpu.numIssuedDist::8                    749264      2.12%    100.00% # Number of insts issued each cycle (Count)
system.cpu.numIssuedDist::overflows                 0      0.00%    100.00% # Number of insts issued each cycle (Count)
system.cpu.numIssuedDist::min_value                 0                       # Number of insts issued each cycle (Count)
system.cpu.numIssuedDist::max_value                 8                       # Number of insts issued each cycle (Count)
system.cpu.numIssuedDist::total              35303134                       # Number of insts issued each cycle (Count)
system.cpu.statFuBusy::No_OpClass                   0      0.00%      0.00% # attempts to use FU when none available (Count)
system.cpu.statFuBusy::IntAlu                  976353     78.61%     78.61% # attempts to use FU when none available (Count)
system.cpu.statFuBusy::IntMult                      0      0.00%     78.61% # attempts to use FU when none available (Count)
system.cpu.statFuBusy::IntDiv                       0      0.00%     78.61% # attempts to use FU when none available (Count)
system.cpu.statFuBusy::FloatAdd                     0      0.00%     78.61% # attempts to use FU when none available (Count)
system.cpu.statFuBusy::FloatCmp                     0      0.00%     78.61% # attempts to use FU when none available (Count)
system.cpu.statFuBusy::FloatCvt                     0      0.00%     78.61% # attempts to use FU when none available (Count)
system.cpu.statFuBusy::FloatMult                    0      0.00%     78.61% # attempts to use FU when none available (Count)
system.cpu.statFuBusy::FloatMultAcc                 0      0.00%     78.61% # attempts to use FU when none available (Count)
system.cpu.statFuBusy::FloatDiv                     0      0.00%     78.61% # attempts to use FU when none available (Count)
system.cpu.statFuBusy::FloatMisc                    0      0.00%     78.61% # attempts to use FU when none available (Count)
system.cpu.statFuBusy::FloatSqrt                    0      0.00%     78.61% # attempts to use FU when none available (Count)
system.cpu.statFuBusy::SimdAdd                      0      0.00%     78.61% # attempts to use FU when none available (Count)
system.cpu.statFuBusy::SimdAddAcc                   0      0.00%     78.61% # attempts to use FU when none available (Count)
system.cpu.statFuBusy::SimdAlu                  20283      1.63%     80.25% # attempts to use FU when none available (Count)
system.cpu.statFuBusy::SimdCmp                      0      0.00%     80.25% # attempts to use FU when none available (Count)
system.cpu.statFuBusy::SimdCvt                    125      0.01%     80.26% # attempts to use FU when none available (Count)
system.cpu.statFuBusy::SimdMisc                  8824      0.71%     80.97% # attempts to use FU when none available (Count)
system.cpu.statFuBusy::SimdMult                     0      0.00%     80.97% # attempts to use FU when none available (Count)
system.cpu.statFuBusy::SimdMultAcc                  0      0.00%     80.97% # attempts to use FU when none available (Count)
system.cpu.statFuBusy::SimdShift                    0      0.00%     80.97% # attempts to use FU when none available (Count)
system.cpu.statFuBusy::SimdShiftAcc                 0      0.00%     80.97% # attempts to use FU when none available (Count)
system.cpu.statFuBusy::SimdDiv                      0      0.00%     80.97% # attempts to use FU when none available (Count)
system.cpu.statFuBusy::SimdSqrt                     0      0.00%     80.97% # attempts to use FU when none available (Count)
system.cpu.statFuBusy::SimdFloatAdd                 0      0.00%     80.97% # attempts to use FU when none available (Count)
system.cpu.statFuBusy::SimdFloatAlu                 0      0.00%     80.97% # attempts to use FU when none available (Count)
system.cpu.statFuBusy::SimdFloatCmp                 0      0.00%     80.97% # attempts to use FU when none available (Count)
system.cpu.statFuBusy::SimdFloatCvt                 0      0.00%     80.97% # attempts to use FU when none available (Count)
system.cpu.statFuBusy::SimdFloatDiv                 0      0.00%     80.97% # attempts to use FU when none available (Count)
system.cpu.statFuBusy::SimdFloatMisc                0      0.00%     80.97% # attempts to use FU when none available (Count)
system.cpu.statFuBusy::SimdFloatMult                0      0.00%     80.97% # attempts to use FU when none available (Count)
system.cpu.statFuBusy::SimdFloatMultAcc             0      0.00%     80.97% # attempts to use FU when none available (Count)
system.cpu.statFuBusy::SimdFloatSqrt                0      0.00%     80.97% # attempts to use FU when none available (Count)
system.cpu.statFuBusy::SimdReduceAdd                0      0.00%     80.97% # attempts to use FU when none available (Count)
system.cpu.statFuBusy::SimdReduceAlu                0      0.00%     80.97% # attempts to use FU when none available (Count)
system.cpu.statFuBusy::SimdReduceCmp                0      0.00%     80.97% # attempts to use FU when none available (Count)
system.cpu.statFuBusy::SimdFloatReduceAdd            0      0.00%     80.97% # attempts to use FU when none available (Count)
system.cpu.statFuBusy::SimdFloatReduceCmp            0      0.00%     80.97% # attempts to use FU when none available (Count)
system.cpu.statFuBusy::SimdAes                      0      0.00%     80.97% # attempts to use FU when none available (Count)
system.cpu.statFuBusy::SimdAesMix                   0      0.00%     80.97% # attempts to use FU when none available (Count)
system.cpu.statFuBusy::SimdSha1Hash                 0      0.00%     80.97% # attempts to use FU when none available (Count)
system.cpu.statFuBusy::SimdSha1Hash2                0      0.00%     80.97% # attempts to use FU when none available (Count)
system.cpu.statFuBusy::SimdSha256Hash               0      0.00%     80.97% # attempts to use FU when none available (Count)
system.cpu.statFuBusy::SimdSha256Hash2              0      0.00%     80.97% # attempts to use FU when none available (Count)
system.cpu.statFuBusy::SimdShaSigma2                0      0.00%     80.97% # attempts to use FU when none available (Count)
system.cpu.statFuBusy::SimdShaSigma3                0      0.00%     80.97% # attempts to use FU when none available (Count)
system.cpu.statFuBusy::SimdPredAlu                  0      0.00%     80.97% # attempts to use FU when none available (Count)
system.cpu.statFuBusy::MemRead                 164383     13.24%     94.20% # attempts to use FU when none available (Count)
system.cpu.statFuBusy::MemWrite                 38125      3.07%     97.27% # attempts to use FU when none available (Count)
system.cpu.statFuBusy::FloatMemRead             21093      1.70%     98.97% # attempts to use FU when none available (Count)
system.cpu.statFuBusy::FloatMemWrite            12766      1.03%    100.00% # attempts to use FU when none available (Count)
system.cpu.statFuBusy::IprAccess                    0      0.00%    100.00% # attempts to use FU when none available (Count)
system.cpu.statFuBusy::InstPrefetch                 0      0.00%    100.00% # attempts to use FU when none available (Count)
system.cpu.statIssuedInstType_0::No_OpClass       867735      1.07%      1.07% # Number of instructions issued per FU type, per thread (Count)
system.cpu.statIssuedInstType_0::IntAlu      59328997     73.14%     74.21% # Number of instructions issued per FU type, per thread (Count)
system.cpu.statIssuedInstType_0::IntMult        89550      0.11%     74.32% # Number of instructions issued per FU type, per thread (Count)
system.cpu.statIssuedInstType_0::IntDiv        910374      1.12%     75.45% # Number of instructions issued per FU type, per thread (Count)
system.cpu.statIssuedInstType_0::FloatAdd       895206      1.10%     76.55% # Number of instructions issued per FU type, per thread (Count)
system.cpu.statIssuedInstType_0::FloatCmp            0      0.00%     76.55% # Number of instructions issued per FU type, per thread (Count)
system.cpu.statIssuedInstType_0::FloatCvt            0      0.00%     76.55% # Number of instructions issued per FU type, per thread (Count)
system.cpu.statIssuedInstType_0::FloatMult            0      0.00%     76.55% # Number of instructions issued per FU type, per thread (Count)
system.cpu.statIssuedInstType_0::FloatMultAcc            0      0.00%     76.55% # Number of instructions issued per FU type, per thread (Count)
system.cpu.statIssuedInstType_0::FloatDiv            0      0.00%     76.55% # Number of instructions issued per FU type, per thread (Count)
system.cpu.statIssuedInstType_0::FloatMisc            0      0.00%     76.55% # Number of instructions issued per FU type, per thread (Count)
system.cpu.statIssuedInstType_0::FloatSqrt            0      0.00%     76.55% # Number of instructions issued per FU type, per thread (Count)
system.cpu.statIssuedInstType_0::SimdAdd            0      0.00%     76.55% # Number of instructions issued per FU type, per thread (Count)
system.cpu.statIssuedInstType_0::SimdAddAcc            0      0.00%     76.55% # Number of instructions issued per FU type, per thread (Count)
system.cpu.statIssuedInstType_0::SimdAlu       288744      0.36%     76.91% # Number of instructions issued per FU type, per thread (Count)
system.cpu.statIssuedInstType_0::SimdCmp          336      0.00%     76.91% # Number of instructions issued per FU type, per thread (Count)
system.cpu.statIssuedInstType_0::SimdCvt       164823      0.20%     77.11% # Number of instructions issued per FU type, per thread (Count)
system.cpu.statIssuedInstType_0::SimdMisc       261232      0.32%     77.43% # Number of instructions issued per FU type, per thread (Count)
system.cpu.statIssuedInstType_0::SimdMult            0      0.00%     77.43% # Number of instructions issued per FU type, per thread (Count)
system.cpu.statIssuedInstType_0::SimdMultAcc            0      0.00%     77.43% # Number of instructions issued per FU type, per thread (Count)
system.cpu.statIssuedInstType_0::SimdShift            0      0.00%     77.43% # Number of instructions issued per FU type, per thread (Count)
system.cpu.statIssuedInstType_0::SimdShiftAcc            0      0.00%     77.43% # Number of instructions issued per FU type, per thread (Count)
system.cpu.statIssuedInstType_0::SimdDiv            0      0.00%     77.43% # Number of instructions issued per FU type, per thread (Count)
system.cpu.statIssuedInstType_0::SimdSqrt            0      0.00%     77.43% # Number of instructions issued per FU type, per thread (Count)
system.cpu.statIssuedInstType_0::SimdFloatAdd       278544      0.34%     77.77% # Number of instructions issued per FU type, per thread (Count)
system.cpu.statIssuedInstType_0::SimdFloatAlu            0      0.00%     77.77% # Number of instructions issued per FU type, per thread (Count)
system.cpu.statIssuedInstType_0::SimdFloatCmp            0      0.00%     77.77% # Number of instructions issued per FU type, per thread (Count)
system.cpu.statIssuedInstType_0::SimdFloatCvt        16388      0.02%     77.79% # Number of instructions issued per FU type, per thread (Count)
system.cpu.statIssuedInstType_0::SimdFloatDiv            0      0.00%     77.79% # Number of instructions issued per FU type, per thread (Count)
system.cpu.statIssuedInstType_0::SimdFloatMisc            0      0.00%     77.79% # Number of instructions issued per FU type, per thread (Count)
system.cpu.statIssuedInstType_0::SimdFloatMult       262144      0.32%     78.12% # Number of instructions issued per FU type, per thread (Count)
system.cpu.statIssuedInstType_0::SimdFloatMultAcc            0      0.00%     78.12% # Number of instructions issued per FU type, per thread (Count)
system.cpu.statIssuedInstType_0::SimdFloatSqrt            0      0.00%     78.12% # Number of instructions issued per FU type, per thread (Count)
system.cpu.statIssuedInstType_0::SimdReduceAdd            0      0.00%     78.12% # Number of instructions issued per FU type, per thread (Count)
system.cpu.statIssuedInstType_0::SimdReduceAlu            0      0.00%     78.12% # Number of instructions issued per FU type, per thread (Count)
system.cpu.statIssuedInstType_0::SimdReduceCmp            0      0.00%     78.12% # Number of instructions issued per FU type, per thread (Count)
system.cpu.statIssuedInstType_0::SimdFloatReduceAdd            0      0.00%     78.12% # Number of instructions issued per FU type, per thread (Count)
system.cpu.statIssuedInstType_0::SimdFloatReduceCmp            0      0.00%     78.12% # Number of instructions issued per FU type, per thread (Count)
system.cpu.statIssuedInstType_0::SimdAes            0      0.00%     78.12% # Number of instructions issued per FU type, per thread (Count)
system.cpu.statIssuedInstType_0::SimdAesMix            0      0.00%     78.12% # Number of instructions issued per FU type, per thread (Count)
system.cpu.statIssuedInstType_0::SimdSha1Hash            0      0.00%     78.12% # Number of instructions issued per FU type, per thread (Count)
system.cpu.statIssuedInstType_0::SimdSha1Hash2            0      0.00%     78.12% # Number of instructions issued per FU type, per thread (Count)
system.cpu.statIssuedInstType_0::SimdSha256Hash            0      0.00%     78.12% # Number of instructions issued per FU type, per thread (Count)
system.cpu.statIssuedInstType_0::SimdSha256Hash2            0      0.00%     78.12% # Number of instructions issued per FU type, per thread (Count)
system.cpu.statIssuedInstType_0::SimdShaSigma2            0      0.00%     78.12% # Number of instructions issued per FU type, per thread (Count)
system.cpu.statIssuedInstType_0::SimdShaSigma3            0      0.00%     78.12% # Number of instructions issued per FU type, per thread (Count)
system.cpu.statIssuedInstType_0::SimdPredAlu            0      0.00%     78.12% # Number of instructions issued per FU type, per thread (Count)
system.cpu.statIssuedInstType_0::MemRead     10166892     12.53%     90.65% # Number of instructions issued per FU type, per thread (Count)
system.cpu.statIssuedInstType_0::MemWrite      5462160      6.73%     97.39% # Number of instructions issued per FU type, per thread (Count)
system.cpu.statIssuedInstType_0::FloatMemRead      1344433      1.66%     99.04% # Number of instructions issued per FU type, per thread (Count)
system.cpu.statIssuedInstType_0::FloatMemWrite       775726      0.96%    100.00% # Number of instructions issued per FU type, per thread (Count)
system.cpu.statIssuedInstType_0::IprAccess            0      0.00%    100.00% # Number of instructions issued per FU type, per thread (Count)
system.cpu.statIssuedInstType_0::InstPrefetch            0      0.00%    100.00% # Number of instructions issued per FU type, per thread (Count)
system.cpu.statIssuedInstType_0::total       81113284                       # Number of instructions issued per FU type, per thread (Count)
system.cpu.issueRate                         2.250041                       # Inst issue rate ((Count/Cycle))
system.cpu.fuBusy                             1241952                       # FU busy when requested (Count)
system.cpu.fuBusyRate                        0.015311                       # FU busy rate (busy events/executed inst) ((Count/Count))
system.cpu.intInstQueueReads                190093909                       # Number of integer instruction queue reads (Count)
system.cpu.intInstQueueWrites                82655489                       # Number of integer instruction queue writes (Count)
system.cpu.intInstQueueWakeupAccesses        76367409                       # Number of integer instruction queue wakeup accesses (Count)
system.cpu.fpInstQueueReads                   8720510                       # Number of floating instruction queue reads (Count)
system.cpu.fpInstQueueWrites                  4423606                       # Number of floating instruction queue writes (Count)
system.cpu.fpInstQueueWakeupAccesses          4315051                       # Number of floating instruction queue wakeup accesses (Count)
system.cpu.vecInstQueueReads                        0                       # Number of vector instruction queue reads (Count)
system.cpu.vecInstQueueWrites                       0                       # Number of vector instruction queue writes (Count)
system.cpu.vecInstQueueWakeupAccesses               0                       # Number of vector instruction queue wakeup accesses (Count)
system.cpu.intAluAccesses                    77095713                       # Number of integer alu accesses (Count)
system.cpu.fpAluAccesses                      4391788                       # Number of floating point alu accesses (Count)
system.cpu.vecAluAccesses                           0                       # Number of vector alu accesses (Count)
system.cpu.numInsts                          80759257                       # Number of executed instructions (Count)
system.cpu.numLoadInsts                      11469509                       # Number of load instructions executed (Count)
system.cpu.numSquashedInsts                    354027                       # Number of squashed instructions skipped in execute (Count)
system.cpu.numSwp                                   0                       # Number of swp insts executed (Count)
system.cpu.numNop                                   0                       # Number of nop insts executed (Count)
system.cpu.numRefs                           17665116                       # Number of memory reference insts executed (Count)
system.cpu.numBranches                        8647141                       # Number of branches executed (Count)
system.cpu.numStoreInsts                      6195607                       # Number of stores executed (Count)
system.cpu.numRate                           2.240221                       # Inst execution rate ((Count/Cycle))
system.cpu.timesIdled                           39624                       # Number of times that the entire CPU went into an idle state and unscheduled itself (Count)
system.cpu.idleCycles                          746554                       # Total number of cycles that the CPU has spent unscheduled due to idling (Cycle)
system.cpu.committedInsts                    41289468                       # Number of Instructions Simulated (Count)
system.cpu.committedOps                      78315814                       # Number of Ops (including micro ops) Simulated (Count)
system.cpu.cpi                               0.873096                       # CPI: Cycles Per Instruction ((Cycle/Count))
system.cpu.totalCpi                          0.873096                       # CPI: Total CPI of All Threads ((Cycle/Count))
system.cpu.ipc                               1.145349                       # IPC: Instructions Per Cycle ((Count/Cycle))
system.cpu.totalIpc                          1.145349                       # IPC: Total IPC of All Threads ((Count/Cycle))
system.cpu.intRegfileReads                  124972482                       # Number of integer regfile reads (Count)
system.cpu.intRegfileWrites                  63522939                       # Number of integer regfile writes (Count)
system.cpu.fpRegfileReads                     3908192                       # Number of floating regfile reads (Count)
system.cpu.fpRegfileWrites                    3353538                       # Number of floating regfile writes (Count)
system.cpu.ccRegfileReads                    44232849                       # number of cc regfile reads (Count)
system.cpu.ccRegfileWrites                   26383947                       # number of cc regfile writes (Count)
system.cpu.miscRegfileReads                  32621922                       # number of misc regfile reads (Count)
system.cpu.MemDepUnit__0.insertedLoads       11557231                       # Number of loads inserted to the mem dependence unit. (Count)
system.cpu.MemDepUnit__0.insertedStores       6402875                       # Number of stores inserted to the mem dependence unit. (Count)
system.cpu.MemDepUnit__0.conflictingLoads      1944686                       # Number of conflicting loads. (Count)
system.cpu.MemDepUnit__0.conflictingStores       952858                       # Number of conflicting stores. (Count)
system.cpu.MemDepUnit__1.insertedLoads              0                       # Number of loads inserted to the mem dependence unit. (Count)
system.cpu.MemDepUnit__1.insertedStores             0                       # Number of stores inserted to the mem dependence unit. (Count)
system.cpu.MemDepUnit__1.conflictingLoads            0                       # Number of conflicting loads. (Count)
system.cpu.MemDepUnit__1.conflictingStores            0                       # Number of conflicting stores. (Count)
system.cpu.MemDepUnit__2.insertedLoads              0                       # Number of loads inserted to the mem dependence unit. (Count)
system.cpu.MemDepUnit__2.insertedStores             0                       # Number of stores inserted to the mem dependence unit. (Count)
system.cpu.MemDepUnit__2.conflictingLoads            0                       # Number of conflicting loads. (Count)
system.cpu.MemDepUnit__2.conflictingStores            0                       # Number of conflicting stores. (Count)
system.cpu.MemDepUnit__3.insertedLoads              0                       # Number of loads inserted to the mem dependence unit. (Count)
system.cpu.MemDepUnit__3.insertedStores             0                       # Number of stores inserted to the mem dependence unit. (Count)
system.cpu.MemDepUnit__3.conflictingLoads            0                       # Number of conflicting loads. (Count)
system.cpu.MemDepUnit__3.conflictingStores            0                       # Number of conflicting stores. (Count)
system.cpu.branchPred.lookups                 9496967                       # Number of BP lookups (Count)
system.cpu.branchPred.condPredicted           7658893                       # Number of conditional branches predicted (Count)
system.cpu.branchPred.condIncorrect            156657                       # Number of conditional branches incorrect (Count)
system.cpu.branchPred.BTBLookups              5552896                       # Number of BTB lookups (Count)
system.cpu.branchPred.BTBHits                 5497546                       # Number of BTB hits (Count)
system.cpu.branchPred.BTBHitRatio            0.990032                       # BTB Hit Ratio (Ratio)
system.cpu.branchPred.RASUsed                  522859                       # Number of times the RAS was used to get a target. (Count)
system.cpu.branchPred.RASIncorrect                  0                       # Number of incorrect RAS predictions. (Count)
system.cpu.branchPred.indirectLookups          109865                       # Number of indirect predictor lookups. (Count)
system.cpu.branchPred.indirectHits             108839                       # Number of indirect target hits. (Count)
system.cpu.branchPred.indirectMisses             1026                       # Number of indirect misses. (Count)
system.cpu.branchPred.indirectMispredicted          179                       # Number of mispredicted indirect branches. (Count)
system.cpu.commit.commitSquashedInsts         4204256                       # The number of squashed insts skipped by commit (Count)
system.cpu.commit.commitNonSpecStalls              18                       # The number of times commit has been forced to stall to communicate backwards (Count)
system.cpu.commit.branchMispredicts            144015                       # The number of times a branch was mispredicted (Count)
system.cpu.commit.numCommittedDist::samples     34711591                       # Number of insts commited each cycle (Count)
system.cpu.commit.numCommittedDist::mean     2.256186                       # Number of insts commited each cycle (Count)
system.cpu.commit.numCommittedDist::stdev     2.870588                       # Number of insts commited each cycle (Count)
system.cpu.commit.numCommittedDist::underflows            0      0.00%      0.00% # Number of insts commited each cycle (Count)
system.cpu.commit.numCommittedDist::0        15644012     45.07%     45.07% # Number of insts commited each cycle (Count)
system.cpu.commit.numCommittedDist::1         4030221     11.61%     56.68% # Number of insts commited each cycle (Count)
system.cpu.commit.numCommittedDist::2         3296526      9.50%     66.18% # Number of insts commited each cycle (Count)
system.cpu.commit.numCommittedDist::3         3205060      9.23%     75.41% # Number of insts commited each cycle (Count)
system.cpu.commit.numCommittedDist::4         1494605      4.31%     79.72% # Number of insts commited each cycle (Count)
system.cpu.commit.numCommittedDist::5          751943      2.17%     81.88% # Number of insts commited each cycle (Count)
system.cpu.commit.numCommittedDist::6          531125      1.53%     83.41% # Number of insts commited each cycle (Count)
system.cpu.commit.numCommittedDist::7          912316      2.63%     86.04% # Number of insts commited each cycle (Count)
system.cpu.commit.numCommittedDist::8         4845783     13.96%    100.00% # Number of insts commited each cycle (Count)
system.cpu.commit.numCommittedDist::overflows            0      0.00%    100.00% # Number of insts commited each cycle (Count)
system.cpu.commit.numCommittedDist::min_value            0                       # Number of insts commited each cycle (Count)
system.cpu.commit.numCommittedDist::max_value            8                       # Number of insts commited each cycle (Count)
system.cpu.commit.numCommittedDist::total     34711591                       # Number of insts commited each cycle (Count)
system.cpu.commit.instsCommitted             41289468                       # Number of instructions committed (Count)
system.cpu.commit.opsCommitted               78315814                       # Number of ops (including micro ops) committed (Count)
system.cpu.commit.memRefs                    17180900                       # Number of memory references committed (Count)
system.cpu.commit.loads                      11117876                       # Number of loads committed (Count)
system.cpu.commit.amos                              0                       # Number of atomic instructions committed (Count)
system.cpu.commit.membars                          12                       # Number of memory barriers committed (Count)
system.cpu.commit.branches                    8399625                       # Number of branches committed (Count)
system.cpu.commit.vectorInstructions                0                       # Number of committed Vector instructions. (Count)
system.cpu.commit.floating                    4284466                       # Number of committed floating point instructions. (Count)
system.cpu.commit.integer                    74436717                       # Number of committed integer instructions. (Count)
system.cpu.commit.functionCalls                491734                       # Number of function calls committed. (Count)
system.cpu.commit.committedInstType_0::No_OpClass       850890      1.09%      1.09% # Class of committed instruction (Count)
system.cpu.commit.committedInstType_0::IntAlu     57163185     72.99%     74.08% # Class of committed instruction (Count)
system.cpu.commit.committedInstType_0::IntMult        89549      0.11%     74.19% # Class of committed instruction (Count)
system.cpu.commit.committedInstType_0::IntDiv       882475      1.13%     75.32% # Class of committed instruction (Count)
system.cpu.commit.committedInstType_0::FloatAdd       880794      1.12%     76.44% # Class of committed instruction (Count)
system.cpu.commit.committedInstType_0::FloatCmp            0      0.00%     76.44% # Class of committed instruction (Count)
system.cpu.commit.committedInstType_0::FloatCvt            0      0.00%     76.44% # Class of committed instruction (Count)
system.cpu.commit.committedInstType_0::FloatMult            0      0.00%     76.44% # Class of committed instruction (Count)
system.cpu.commit.committedInstType_0::FloatMultAcc            0      0.00%     76.44% # Class of committed instruction (Count)
system.cpu.commit.committedInstType_0::FloatDiv            0      0.00%     76.44% # Class of committed instruction (Count)
system.cpu.commit.committedInstType_0::FloatMisc            0      0.00%     76.44% # Class of committed instruction (Count)
system.cpu.commit.committedInstType_0::FloatSqrt            0      0.00%     76.44% # Class of committed instruction (Count)
system.cpu.commit.committedInstType_0::SimdAdd            0      0.00%     76.44% # Class of committed instruction (Count)
system.cpu.commit.committedInstType_0::SimdAddAcc            0      0.00%     76.44% # Class of committed instruction (Count)
system.cpu.commit.committedInstType_0::SimdAlu       287296      0.37%     76.81% # Class of committed instruction (Count)
system.cpu.commit.committedInstType_0::SimdCmp          336      0.00%     76.81% # Class of committed instruction (Count)
system.cpu.commit.committedInstType_0::SimdCvt       164462      0.21%     77.02% # Class of committed instruction (Count)
system.cpu.commit.committedInstType_0::SimdMisc       258871      0.33%     77.35% # Class of committed instruction (Count)
system.cpu.commit.committedInstType_0::SimdMult            0      0.00%     77.35% # Class of committed instruction (Count)
system.cpu.commit.committedInstType_0::SimdMultAcc            0      0.00%     77.35% # Class of committed instruction (Count)
system.cpu.commit.committedInstType_0::SimdShift            0      0.00%     77.35% # Class of committed instruction (Count)
system.cpu.commit.committedInstType_0::SimdShiftAcc            0      0.00%     77.35% # Class of committed instruction (Count)
system.cpu.commit.committedInstType_0::SimdDiv            0      0.00%     77.35% # Class of committed instruction (Count)
system.cpu.commit.committedInstType_0::SimdSqrt            0      0.00%     77.35% # Class of committed instruction (Count)
system.cpu.commit.committedInstType_0::SimdFloatAdd       278528      0.36%     77.71% # Class of committed instruction (Count)
system.cpu.commit.committedInstType_0::SimdFloatAlu            0      0.00%     77.71% # Class of committed instruction (Count)
system.cpu.commit.committedInstType_0::SimdFloatCmp            0      0.00%     77.71% # Class of committed instruction (Count)
system.cpu.commit.committedInstType_0::SimdFloatCvt        16384      0.02%     77.73% # Class of committed instruction (Count)
system.cpu.commit.committedInstType_0::SimdFloatDiv            0      0.00%     77.73% # Class of committed instruction (Count)
system.cpu.commit.committedInstType_0::SimdFloatMisc            0      0.00%     77.73% # Class of committed instruction (Count)
system.cpu.commit.committedInstType_0::SimdFloatMult       262144      0.33%     78.06% # Class of committed instruction (Count)
system.cpu.commit.committedInstType_0::SimdFloatMultAcc            0      0.00%     78.06% # Class of committed instruction (Count)
system.cpu.commit.committedInstType_0::SimdFloatSqrt            0      0.00%     78.06% # Class of committed instruction (Count)
system.cpu.commit.committedInstType_0::SimdReduceAdd            0      0.00%     78.06% # Class of committed instruction (Count)
system.cpu.commit.committedInstType_0::SimdReduceAlu            0      0.00%     78.06% # Class of committed instruction (Count)
system.cpu.commit.committedInstType_0::SimdReduceCmp            0      0.00%     78.06% # Class of committed instruction (Count)
system.cpu.commit.committedInstType_0::SimdFloatReduceAdd            0      0.00%     78.06% # Class of committed instruction (Count)
system.cpu.commit.committedInstType_0::SimdFloatReduceCmp            0      0.00%     78.06% # Class of committed instruction (Count)
system.cpu.commit.committedInstType_0::SimdAes            0      0.00%     78.06% # Class of committed instruction (Count)
system.cpu.commit.committedInstType_0::SimdAesMix            0      0.00%     78.06% # Class of committed instruction (Count)
system.cpu.commit.committedInstType_0::SimdSha1Hash            0      0.00%     78.06% # Class of committed instruction (Count)
system.cpu.commit.committedInstType_0::SimdSha1Hash2            0      0.00%     78.06% # Class of committed instruction (Count)
system.cpu.commit.committedInstType_0::SimdSha256Hash            0      0.00%     78.06% # Class of committed instruction (Count)
system.cpu.commit.committedInstType_0::SimdSha256Hash2            0      0.00%     78.06% # Class of committed instruction (Count)
system.cpu.commit.committedInstType_0::SimdShaSigma2            0      0.00%     78.06% # Class of committed instruction (Count)
system.cpu.commit.committedInstType_0::SimdShaSigma3            0      0.00%     78.06% # Class of committed instruction (Count)
system.cpu.commit.committedInstType_0::SimdPredAlu            0      0.00%     78.06% # Class of committed instruction (Count)
system.cpu.commit.committedInstType_0::MemRead      9777520     12.48%     90.55% # Class of committed instruction (Count)
system.cpu.commit.committedInstType_0::MemWrite      5308845      6.78%     97.33% # Class of committed instruction (Count)
system.cpu.commit.committedInstType_0::FloatMemRead      1340356      1.71%     99.04% # Class of committed instruction (Count)
system.cpu.commit.committedInstType_0::FloatMemWrite       754179      0.96%    100.00% # Class of committed instruction (Count)
system.cpu.commit.committedInstType_0::IprAccess            0      0.00%    100.00% # Class of committed instruction (Count)
system.cpu.commit.committedInstType_0::InstPrefetch            0      0.00%    100.00% # Class of committed instruction (Count)
system.cpu.commit.committedInstType_0::total     78315814                       # Class of committed instruction (Count)
system.cpu.commit.commitEligibleSamples       4845783                       # number cycles where commit BW limit reached (Cycle)
system.cpu.dcache.demandHits::cpu.data       14183070                       # number of demand (read+write) hits (Count)
system.cpu.dcache.demandHits::total          14183070                       # number of demand (read+write) hits (Count)
system.cpu.dcache.overallHits::cpu.data      14183070                       # number of overall hits (Count)
system.cpu.dcache.overallHits::total         14183070                       # number of overall hits (Count)
system.cpu.dcache.demandMisses::cpu.data       409867                       # number of demand (read+write) misses (Count)
system.cpu.dcache.demandMisses::total          409867                       # number of demand (read+write) misses (Count)
system.cpu.dcache.overallMisses::cpu.data       409867                       # number of overall misses (Count)
system.cpu.dcache.overallMisses::total         409867                       # number of overall misses (Count)
system.cpu.dcache.demandMissLatency::cpu.data  20752556999                       # number of demand (read+write) miss ticks (Tick)
system.cpu.dcache.demandMissLatency::total  20752556999                       # number of demand (read+write) miss ticks (Tick)
system.cpu.dcache.overallMissLatency::cpu.data  20752556999                       # number of overall miss ticks (Tick)
system.cpu.dcache.overallMissLatency::total  20752556999                       # number of overall miss ticks (Tick)
system.cpu.dcache.demandAccesses::cpu.data     14592937                       # number of demand (read+write) accesses (Count)
system.cpu.dcache.demandAccesses::total      14592937                       # number of demand (read+write) accesses (Count)
system.cpu.dcache.overallAccesses::cpu.data     14592937                       # number of overall (read+write) accesses (Count)
system.cpu.dcache.overallAccesses::total     14592937                       # number of overall (read+write) accesses (Count)
system.cpu.dcache.demandMissRate::cpu.data     0.028087                       # miss rate for demand accesses (Ratio)
system.cpu.dcache.demandMissRate::total      0.028087                       # miss rate for demand accesses (Ratio)
system.cpu.dcache.overallMissRate::cpu.data     0.028087                       # miss rate for overall accesses (Ratio)
system.cpu.dcache.overallMissRate::total     0.028087                       # miss rate for overall accesses (Ratio)
system.cpu.dcache.demandAvgMissLatency::cpu.data 50632.417343                       # average overall miss latency ((Cycle/Count))
system.cpu.dcache.demandAvgMissLatency::total 50632.417343                       # average overall miss latency ((Cycle/Count))
system.cpu.dcache.overallAvgMissLatency::cpu.data 50632.417343                       # average overall miss latency ((Cycle/Count))
system.cpu.dcache.overallAvgMissLatency::total 50632.417343                       # average overall miss latency ((Cycle/Count))
system.cpu.dcache.blockedCycles::no_mshrs       474681                       # number of cycles access was blocked (Cycle)
system.cpu.dcache.blockedCycles::no_targets            0                       # number of cycles access was blocked (Cycle)
system.cpu.dcache.blockedCauses::no_mshrs        14295                       # number of times access was blocked (Count)
system.cpu.dcache.blockedCauses::no_targets            0                       # number of times access was blocked (Count)
system.cpu.dcache.avgBlocked::no_mshrs      33.206086                       # average number of cycles each access was blocked ((Cycle/Count))
system.cpu.dcache.avgBlocked::no_targets          nan                       # average number of cycles each access was blocked ((Cycle/Count))
system.cpu.dcache.writebacks::writebacks        21494                       # number of writebacks (Count)
system.cpu.dcache.writebacks::total             21494                       # number of writebacks (Count)
system.cpu.dcache.demandMshrHits::cpu.data        95955                       # number of demand (read+write) MSHR hits (Count)
system.cpu.dcache.demandMshrHits::total         95955                       # number of demand (read+write) MSHR hits (Count)
system.cpu.dcache.overallMshrHits::cpu.data        95955                       # number of overall MSHR hits (Count)
system.cpu.dcache.overallMshrHits::total        95955                       # number of overall MSHR hits (Count)
system.cpu.dcache.demandMshrMisses::cpu.data       313912                       # number of demand (read+write) MSHR misses (Count)
system.cpu.dcache.demandMshrMisses::total       313912                       # number of demand (read+write) MSHR misses (Count)
system.cpu.dcache.overallMshrMisses::cpu.data       313912                       # number of overall MSHR misses (Count)
system.cpu.dcache.overallMshrMisses::total       313912                       # number of overall MSHR misses (Count)
system.cpu.dcache.demandMshrMissLatency::cpu.data  16736422499                       # number of demand (read+write) MSHR miss ticks (Tick)
system.cpu.dcache.demandMshrMissLatency::total  16736422499                       # number of demand (read+write) MSHR miss ticks (Tick)
system.cpu.dcache.overallMshrMissLatency::cpu.data  16736422499                       # number of overall MSHR miss ticks (Tick)
system.cpu.dcache.overallMshrMissLatency::total  16736422499                       # number of overall MSHR miss ticks (Tick)
system.cpu.dcache.demandMshrMissRate::cpu.data     0.021511                       # mshr miss ratio for demand accesses (Ratio)
system.cpu.dcache.demandMshrMissRate::total     0.021511                       # mshr miss ratio for demand accesses (Ratio)
system.cpu.dcache.overallMshrMissRate::cpu.data     0.021511                       # mshr miss ratio for overall accesses (Ratio)
system.cpu.dcache.overallMshrMissRate::total     0.021511                       # mshr miss ratio for overall accesses (Ratio)
system.cpu.dcache.demandAvgMshrMissLatency::cpu.data 53315.650561                       # average overall mshr miss latency ((Cycle/Count))
system.cpu.dcache.demandAvgMshrMissLatency::total 53315.650561                       # average overall mshr miss latency ((Cycle/Count))
system.cpu.dcache.overallAvgMshrMissLatency::cpu.data 53315.650561                       # average overall mshr miss latency ((Cycle/Count))
system.cpu.dcache.overallAvgMshrMissLatency::total 53315.650561                       # average overall mshr miss latency ((Cycle/Count))
system.cpu.dcache.replacements                 313784                       # number of replacements (Count)
system.cpu.dcache.ReadReq.hits::cpu.data      8129235                       # number of ReadReq hits (Count)
system.cpu.dcache.ReadReq.hits::total         8129235                       # number of ReadReq hits (Count)
system.cpu.dcache.ReadReq.misses::cpu.data       400677                       # number of ReadReq misses (Count)
system.cpu.dcache.ReadReq.misses::total        400677                       # number of ReadReq misses (Count)
system.cpu.dcache.ReadReq.missLatency::cpu.data  20387458000                       # number of ReadReq miss ticks (Tick)
system.cpu.dcache.ReadReq.missLatency::total  20387458000                       # number of ReadReq miss ticks (Tick)
system.cpu.dcache.ReadReq.accesses::cpu.data      8529912                       # number of ReadReq accesses(hits+misses) (Count)
system.cpu.dcache.ReadReq.accesses::total      8529912                       # number of ReadReq accesses(hits+misses) (Count)
system.cpu.dcache.ReadReq.missRate::cpu.data     0.046973                       # miss rate for ReadReq accesses (Ratio)
system.cpu.dcache.ReadReq.missRate::total     0.046973                       # miss rate for ReadReq accesses (Ratio)
system.cpu.dcache.ReadReq.avgMissLatency::cpu.data 50882.526324                       # average ReadReq miss latency ((Tick/Count))
system.cpu.dcache.ReadReq.avgMissLatency::total 50882.526324                       # average ReadReq miss latency ((Tick/Count))
system.cpu.dcache.ReadReq.mshrHits::cpu.data        95898                       # number of ReadReq MSHR hits (Count)
system.cpu.dcache.ReadReq.mshrHits::total        95898                       # number of ReadReq MSHR hits (Count)
system.cpu.dcache.ReadReq.mshrMisses::cpu.data       304779                       # number of ReadReq MSHR misses (Count)
system.cpu.dcache.ReadReq.mshrMisses::total       304779                       # number of ReadReq MSHR misses (Count)
system.cpu.dcache.ReadReq.mshrMissLatency::cpu.data  16382054000                       # number of ReadReq MSHR miss ticks (Tick)
system.cpu.dcache.ReadReq.mshrMissLatency::total  16382054000                       # number of ReadReq MSHR miss ticks (Tick)
system.cpu.dcache.ReadReq.mshrMissRate::cpu.data     0.035731                       # mshr miss rate for ReadReq accesses (Ratio)
system.cpu.dcache.ReadReq.mshrMissRate::total     0.035731                       # mshr miss rate for ReadReq accesses (Ratio)
system.cpu.dcache.ReadReq.avgMshrMissLatency::cpu.data 53750.599615                       # average ReadReq mshr miss latency ((Tick/Count))
system.cpu.dcache.ReadReq.avgMshrMissLatency::total 53750.599615                       # average ReadReq mshr miss latency ((Tick/Count))
system.cpu.dcache.WriteReq.hits::cpu.data      6053835                       # number of WriteReq hits (Count)
system.cpu.dcache.WriteReq.hits::total        6053835                       # number of WriteReq hits (Count)
system.cpu.dcache.WriteReq.misses::cpu.data         9190                       # number of WriteReq misses (Count)
system.cpu.dcache.WriteReq.misses::total         9190                       # number of WriteReq misses (Count)
system.cpu.dcache.WriteReq.missLatency::cpu.data    365098999                       # number of WriteReq miss ticks (Tick)
system.cpu.dcache.WriteReq.missLatency::total    365098999                       # number of WriteReq miss ticks (Tick)
system.cpu.dcache.WriteReq.accesses::cpu.data      6063025                       # number of WriteReq accesses(hits+misses) (Count)
system.cpu.dcache.WriteReq.accesses::total      6063025                       # number of WriteReq accesses(hits+misses) (Count)
system.cpu.dcache.WriteReq.missRate::cpu.data     0.001516                       # miss rate for WriteReq accesses (Ratio)
system.cpu.dcache.WriteReq.missRate::total     0.001516                       # miss rate for WriteReq accesses (Ratio)
system.cpu.dcache.WriteReq.avgMissLatency::cpu.data 39727.856257                       # average WriteReq miss latency ((Tick/Count))
system.cpu.dcache.WriteReq.avgMissLatency::total 39727.856257                       # average WriteReq miss latency ((Tick/Count))
system.cpu.dcache.WriteReq.mshrHits::cpu.data           57                       # number of WriteReq MSHR hits (Count)
system.cpu.dcache.WriteReq.mshrHits::total           57                       # number of WriteReq MSHR hits (Count)
system.cpu.dcache.WriteReq.mshrMisses::cpu.data         9133                       # number of WriteReq MSHR misses (Count)
system.cpu.dcache.WriteReq.mshrMisses::total         9133                       # number of WriteReq MSHR misses (Count)
system.cpu.dcache.WriteReq.mshrMissLatency::cpu.data    354368499                       # number of WriteReq MSHR miss ticks (Tick)
system.cpu.dcache.WriteReq.mshrMissLatency::total    354368499                       # number of WriteReq MSHR miss ticks (Tick)
system.cpu.dcache.WriteReq.mshrMissRate::cpu.data     0.001506                       # mshr miss rate for WriteReq accesses (Ratio)
system.cpu.dcache.WriteReq.mshrMissRate::total     0.001506                       # mshr miss rate for WriteReq accesses (Ratio)
system.cpu.dcache.WriteReq.avgMshrMissLatency::cpu.data 38800.886784                       # average WriteReq mshr miss latency ((Tick/Count))
system.cpu.dcache.WriteReq.avgMshrMissLatency::total 38800.886784                       # average WriteReq mshr miss latency ((Tick/Count))
system.cpu.dcache.power_state.pwrStateResidencyTicks::UNDEFINED  18024843500                       # Cumulative time (in ticks) in various power states (Tick)
system.cpu.dcache.tags.tagsInUse           127.950770                       # Average ticks per tags in use ((Tick/Count))
system.cpu.dcache.tags.totalRefs             14496982                       # Total number of references to valid blocks. (Count)
system.cpu.dcache.tags.sampledRefs             313912                       # Sample count of references to valid blocks. (Count)
system.cpu.dcache.tags.avgRefs              46.181675                       # Average number of references to valid blocks. ((Count/Count))
system.cpu.dcache.tags.warmupTick              145000                       # The tick when the warmup percentage was hit. (Tick)
system.cpu.dcache.tags.occupancies::cpu.data   127.950770                       # Average occupied blocks per tick, per requestor ((Count/Tick))
system.cpu.dcache.tags.avgOccs::cpu.data     0.999615                       # Average percentage of cache occupancy ((Ratio/Tick))
system.cpu.dcache.tags.avgOccs::total        0.999615                       # Average percentage of cache occupancy ((Ratio/Tick))
system.cpu.dcache.tags.occupanciesTaskId::1024          128                       # Occupied blocks per task id (Count)
system.cpu.dcache.tags.ageTaskId_1024::0           67                       # Occupied blocks per task id, per block age (Count)
system.cpu.dcache.tags.ageTaskId_1024::1           61                       # Occupied blocks per task id, per block age (Count)
system.cpu.dcache.tags.ratioOccsTaskId::1024            1                       # Ratio of occupied blocks and all blocks, per task id (Ratio)
system.cpu.dcache.tags.tagAccesses           29499786                       # Number of tag accesses (Count)
system.cpu.dcache.tags.dataAccesses          29499786                       # Number of data accesses (Count)
system.cpu.dcache.tags.power_state.pwrStateResidencyTicks::UNDEFINED  18024843500                       # Cumulative time (in ticks) in various power states (Tick)
system.cpu.decode.idleCycles                  7083469                       # Number of cycles decode is idle (Cycle)
system.cpu.decode.blockedCycles              15088763                       # Number of cycles decode is blocked (Cycle)
system.cpu.decode.runCycles                  11504838                       # Number of cycles decode is running (Cycle)
system.cpu.decode.unblockCycles               1476663                       # Number of cycles decode is unblocking (Cycle)
system.cpu.decode.squashCycles                 149401                       # Number of cycles decode is squashing (Cycle)
system.cpu.decode.branchResolved              5227834                       # Number of times decode resolved a branch (Count)
system.cpu.decode.branchMispred                 12802                       # Number of times decode detected a branch misprediction (Count)
system.cpu.decode.decodedInsts               84215818                       # Number of instructions handled by decode (Count)
system.cpu.decode.squashedInsts                 96950                       # Number of squashed instructions handled by decode (Count)
system.cpu.dtb_walker_cache.blockedCycles::no_mshrs            0                       # number of cycles access was blocked (Cycle)
system.cpu.dtb_walker_cache.blockedCycles::no_targets            0                       # number of cycles access was blocked (Cycle)
system.cpu.dtb_walker_cache.blockedCauses::no_mshrs            0                       # number of times access was blocked (Count)
system.cpu.dtb_walker_cache.blockedCauses::no_targets            0                       # number of times access was blocked (Count)
system.cpu.dtb_walker_cache.avgBlocked::no_mshrs          nan                       # average number of cycles each access was blocked ((Cycle/Count))
system.cpu.dtb_walker_cache.avgBlocked::no_targets          nan                       # average number of cycles each access was blocked ((Cycle/Count))
system.cpu.dtb_walker_cache.replacements            0                       # number of replacements (Count)
system.cpu.dtb_walker_cache.power_state.pwrStateResidencyTicks::UNDEFINED  18024843500                       # Cumulative time (in ticks) in various power states (Tick)
system.cpu.dtb_walker_cache.tags.tagsInUse            0                       # Average ticks per tags in use ((Tick/Count))
system.cpu.dtb_walker_cache.tags.totalRefs            0                       # Total number of references to valid blocks. (Count)
system.cpu.dtb_walker_cache.tags.sampledRefs            0                       # Sample count of references to valid blocks. (Count)
system.cpu.dtb_walker_cache.tags.avgRefs          nan                       # Average number of references to valid blocks. ((Count/Count))
system.cpu.dtb_walker_cache.tags.warmupTick            0                       # The tick when the warmup percentage was hit. (Tick)
system.cpu.dtb_walker_cache.tags.tagAccesses            0                       # Number of tag accesses (Count)
system.cpu.dtb_walker_cache.tags.dataAccesses            0                       # Number of data accesses (Count)
system.cpu.dtb_walker_cache.tags.power_state.pwrStateResidencyTicks::UNDEFINED  18024843500                       # Cumulative time (in ticks) in various power states (Tick)
system.cpu.fetch.icacheStallCycles            7997723                       # Number of cycles fetch is stalled on an Icache miss (Cycle)
system.cpu.fetch.insts                       44563037                       # Number of instructions fetch has processed (Count)
system.cpu.fetch.branches                     9496967                       # Number of branches that fetch encountered (Count)
system.cpu.fetch.predictedBranches            6129244                       # Number of branches that fetch has predicted taken (Count)
system.cpu.fetch.cycles                      27141399                       # Number of cycles fetch has run and was not squashing or blocked (Cycle)
system.cpu.fetch.squashCycles                  324382                       # Number of cycles fetch has spent squashing (Cycle)
system.cpu.fetch.miscStallCycles                  168                       # Number of cycles fetch has spent waiting on interrupts, or bad addresses, or out of MSHRs (Cycle)
system.cpu.fetch.pendingTrapStallCycles           986                       # Number of stall cycles due to pending traps (Cycle)
system.cpu.fetch.pendingQuiesceStallCycles            2                       # Number of stall cycles due to pending quiesce instructions (Cycle)
system.cpu.fetch.icacheWaitRetryStallCycles          665                       # Number of stall cycles due to full MSHR (Cycle)
system.cpu.fetch.cacheLines                   6335200                       # Number of cache lines fetched (Count)
system.cpu.fetch.icacheSquashes                 31168                       # Number of outstanding Icache misses that were squashed (Count)
system.cpu.fetch.nisnDist::samples           35303134                       # Number of instructions fetched each cycle (Total) (Count)
system.cpu.fetch.nisnDist::mean              2.445046                       # Number of instructions fetched each cycle (Total) (Count)
system.cpu.fetch.nisnDist::stdev             3.342966                       # Number of instructions fetched each cycle (Total) (Count)
system.cpu.fetch.nisnDist::underflows               0      0.00%      0.00% # Number of instructions fetched each cycle (Total) (Count)
system.cpu.fetch.nisnDist::0                 21078714     59.71%     59.71% # Number of instructions fetched each cycle (Total) (Count)
system.cpu.fetch.nisnDist::1                   805808      2.28%     61.99% # Number of instructions fetched each cycle (Total) (Count)
system.cpu.fetch.nisnDist::2                   945492      2.68%     64.67% # Number of instructions fetched each cycle (Total) (Count)
system.cpu.fetch.nisnDist::3                   919700      2.61%     67.27% # Number of instructions fetched each cycle (Total) (Count)
system.cpu.fetch.nisnDist::4                  1560325      4.42%     71.69% # Number of instructions fetched each cycle (Total) (Count)
system.cpu.fetch.nisnDist::5                  1140154      3.23%     74.92% # Number of instructions fetched each cycle (Total) (Count)
system.cpu.fetch.nisnDist::6                   605882      1.72%     76.64% # Number of instructions fetched each cycle (Total) (Count)
system.cpu.fetch.nisnDist::7                   691955      1.96%     78.60% # Number of instructions fetched each cycle (Total) (Count)
system.cpu.fetch.nisnDist::8                  7555104     21.40%    100.00% # Number of instructions fetched each cycle (Total) (Count)
system.cpu.fetch.nisnDist::overflows                0      0.00%    100.00% # Number of instructions fetched each cycle (Total) (Count)
system.cpu.fetch.nisnDist::min_value                0                       # Number of instructions fetched each cycle (Total) (Count)
system.cpu.fetch.nisnDist::max_value                8                       # Number of instructions fetched each cycle (Total) (Count)
system.cpu.fetch.nisnDist::total             35303134                       # Number of instructions fetched each cycle (Total) (Count)
system.cpu.fetch.branchRate                  0.263441                       # Number of branch fetches per cycle (Ratio)
system.cpu.fetch.rate                        1.236156                       # Number of inst fetches per cycle ((Count/Cycle))
system.cpu.icache.demandHits::cpu.inst        6276556                       # number of demand (read+write) hits (Count)
system.cpu.icache.demandHits::total           6276556                       # number of demand (read+write) hits (Count)
system.cpu.icache.overallHits::cpu.inst       6276556                       # number of overall hits (Count)
system.cpu.icache.overallHits::total          6276556                       # number of overall hits (Count)
system.cpu.icache.demandMisses::cpu.inst        58644                       # number of demand (read+write) misses (Count)
system.cpu.icache.demandMisses::total           58644                       # number of demand (read+write) misses (Count)
system.cpu.icache.overallMisses::cpu.inst        58644                       # number of overall misses (Count)
system.cpu.icache.overallMisses::total          58644                       # number of overall misses (Count)
system.cpu.icache.demandMissLatency::cpu.inst   1328725498                       # number of demand (read+write) miss ticks (Tick)
system.cpu.icache.demandMissLatency::total   1328725498                       # number of demand (read+write) miss ticks (Tick)
system.cpu.icache.overallMissLatency::cpu.inst   1328725498                       # number of overall miss ticks (Tick)
system.cpu.icache.overallMissLatency::total   1328725498                       # number of overall miss ticks (Tick)
system.cpu.icache.demandAccesses::cpu.inst      6335200                       # number of demand (read+write) accesses (Count)
system.cpu.icache.demandAccesses::total       6335200                       # number of demand (read+write) accesses (Count)
system.cpu.icache.overallAccesses::cpu.inst      6335200                       # number of overall (read+write) accesses (Count)
system.cpu.icache.overallAccesses::total      6335200                       # number of overall (read+write) accesses (Count)
system.cpu.icache.demandMissRate::cpu.inst     0.009257                       # miss rate for demand accesses (Ratio)
system.cpu.icache.demandMissRate::total      0.009257                       # miss rate for demand accesses (Ratio)
system.cpu.icache.overallMissRate::cpu.inst     0.009257                       # miss rate for overall accesses (Ratio)
system.cpu.icache.overallMissRate::total     0.009257                       # miss rate for overall accesses (Ratio)
system.cpu.icache.demandAvgMissLatency::cpu.inst 22657.484107                       # average overall miss latency ((Cycle/Count))
system.cpu.icache.demandAvgMissLatency::total 22657.484107                       # average overall miss latency ((Cycle/Count))
system.cpu.icache.overallAvgMissLatency::cpu.inst 22657.484107                       # average overall miss latency ((Cycle/Count))
system.cpu.icache.overallAvgMissLatency::total 22657.484107                       # average overall miss latency ((Cycle/Count))
system.cpu.icache.blockedCycles::no_mshrs         1230                       # number of cycles access was blocked (Cycle)
system.cpu.icache.blockedCycles::no_targets            0                       # number of cycles access was blocked (Cycle)
system.cpu.icache.blockedCauses::no_mshrs            9                       # number of times access was blocked (Count)
system.cpu.icache.blockedCauses::no_targets            0                       # number of times access was blocked (Count)
system.cpu.icache.avgBlocked::no_mshrs     136.666667                       # average number of cycles each access was blocked ((Cycle/Count))
system.cpu.icache.avgBlocked::no_targets          nan                       # average number of cycles each access was blocked ((Cycle/Count))
system.cpu.icache.writebacks::writebacks        53838                       # number of writebacks (Count)
system.cpu.icache.writebacks::total             53838                       # number of writebacks (Count)
system.cpu.icache.demandMshrHits::cpu.inst         4307                       # number of demand (read+write) MSHR hits (Count)
system.cpu.icache.demandMshrHits::total          4307                       # number of demand (read+write) MSHR hits (Count)
system.cpu.icache.overallMshrHits::cpu.inst         4307                       # number of overall MSHR hits (Count)
system.cpu.icache.overallMshrHits::total         4307                       # number of overall MSHR hits (Count)
system.cpu.icache.demandMshrMisses::cpu.inst        54337                       # number of demand (read+write) MSHR misses (Count)
system.cpu.icache.demandMshrMisses::total        54337                       # number of demand (read+write) MSHR misses (Count)
system.cpu.icache.overallMshrMisses::cpu.inst        54337                       # number of overall MSHR misses (Count)
system.cpu.icache.overallMshrMisses::total        54337                       # number of overall MSHR misses (Count)
system.cpu.icache.demandMshrMissLatency::cpu.inst   1236359998                       # number of demand (read+write) MSHR miss ticks (Tick)
system.cpu.icache.demandMshrMissLatency::total   1236359998                       # number of demand (read+write) MSHR miss ticks (Tick)
system.cpu.icache.overallMshrMissLatency::cpu.inst   1236359998                       # number of overall MSHR miss ticks (Tick)
system.cpu.icache.overallMshrMissLatency::total   1236359998                       # number of overall MSHR miss ticks (Tick)
system.cpu.icache.demandMshrMissRate::cpu.inst     0.008577                       # mshr miss ratio for demand accesses (Ratio)
system.cpu.icache.demandMshrMissRate::total     0.008577                       # mshr miss ratio for demand accesses (Ratio)
system.cpu.icache.overallMshrMissRate::cpu.inst     0.008577                       # mshr miss ratio for overall accesses (Ratio)
system.cpu.icache.overallMshrMissRate::total     0.008577                       # mshr miss ratio for overall accesses (Ratio)
system.cpu.icache.demandAvgMshrMissLatency::cpu.inst 22753.556472                       # average overall mshr miss latency ((Cycle/Count))
system.cpu.icache.demandAvgMshrMissLatency::total 22753.556472                       # average overall mshr miss latency ((Cycle/Count))
system.cpu.icache.overallAvgMshrMissLatency::cpu.inst 22753.556472                       # average overall mshr miss latency ((Cycle/Count))
system.cpu.icache.overallAvgMshrMissLatency::total 22753.556472                       # average overall mshr miss latency ((Cycle/Count))
system.cpu.icache.replacements                  53838                       # number of replacements (Count)
system.cpu.icache.ReadReq.hits::cpu.inst      6276556                       # number of ReadReq hits (Count)
system.cpu.icache.ReadReq.hits::total         6276556                       # number of ReadReq hits (Count)
system.cpu.icache.ReadReq.misses::cpu.inst        58644                       # number of ReadReq misses (Count)
system.cpu.icache.ReadReq.misses::total         58644                       # number of ReadReq misses (Count)
system.cpu.icache.ReadReq.missLatency::cpu.inst   1328725498                       # number of ReadReq miss ticks (Tick)
system.cpu.icache.ReadReq.missLatency::total   1328725498                       # number of ReadReq miss ticks (Tick)
system.cpu.icache.ReadReq.accesses::cpu.inst      6335200                       # number of ReadReq accesses(hits+misses) (Count)
system.cpu.icache.ReadReq.accesses::total      6335200                       # number of ReadReq accesses(hits+misses) (Count)
system.cpu.icache.ReadReq.missRate::cpu.inst     0.009257                       # miss rate for ReadReq accesses (Ratio)
system.cpu.icache.ReadReq.missRate::total     0.009257                       # miss rate for ReadReq accesses (Ratio)
system.cpu.icache.ReadReq.avgMissLatency::cpu.inst 22657.484107                       # average ReadReq miss latency ((Tick/Count))
system.cpu.icache.ReadReq.avgMissLatency::total 22657.484107                       # average ReadReq miss latency ((Tick/Count))
system.cpu.icache.ReadReq.mshrHits::cpu.inst         4307                       # number of ReadReq MSHR hits (Count)
system.cpu.icache.ReadReq.mshrHits::total         4307                       # number of ReadReq MSHR hits (Count)
system.cpu.icache.ReadReq.mshrMisses::cpu.inst        54337                       # number of ReadReq MSHR misses (Count)
system.cpu.icache.ReadReq.mshrMisses::total        54337                       # number of ReadReq MSHR misses (Count)
system.cpu.icache.ReadReq.mshrMissLatency::cpu.inst   1236359998                       # number of ReadReq MSHR miss ticks (Tick)
system.cpu.icache.ReadReq.mshrMissLatency::total   1236359998                       # number of ReadReq MSHR miss ticks (Tick)
system.cpu.icache.ReadReq.mshrMissRate::cpu.inst     0.008577                       # mshr miss rate for ReadReq accesses (Ratio)
system.cpu.icache.ReadReq.mshrMissRate::total     0.008577                       # mshr miss rate for ReadReq accesses (Ratio)
system.cpu.icache.ReadReq.avgMshrMissLatency::cpu.inst 22753.556472                       # average ReadReq mshr miss latency ((Tick/Count))
system.cpu.icache.ReadReq.avgMshrMissLatency::total 22753.556472                       # average ReadReq mshr miss latency ((Tick/Count))
system.cpu.icache.power_state.pwrStateResidencyTicks::UNDEFINED  18024843500                       # Cumulative time (in ticks) in various power states (Tick)
system.cpu.icache.tags.tagsInUse           455.751155                       # Average ticks per tags in use ((Tick/Count))
system.cpu.icache.tags.totalRefs              6330893                       # Total number of references to valid blocks. (Count)
system.cpu.icache.tags.sampledRefs              54337                       # Sample count of references to valid blocks. (Count)
system.cpu.icache.tags.avgRefs             116.511640                       # Average number of references to valid blocks. ((Count/Count))
system.cpu.icache.tags.warmupTick               77000                       # The tick when the warmup percentage was hit. (Tick)
system.cpu.icache.tags.occupancies::cpu.inst   455.751155                       # Average occupied blocks per tick, per requestor ((Count/Tick))
system.cpu.icache.tags.avgOccs::cpu.inst     0.890139                       # Average percentage of cache occupancy ((Ratio/Tick))
system.cpu.icache.tags.avgOccs::total        0.890139                       # Average percentage of cache occupancy ((Ratio/Tick))
system.cpu.icache.tags.occupanciesTaskId::1024          499                       # Occupied blocks per task id (Count)
system.cpu.icache.tags.ageTaskId_1024::0          117                       # Occupied blocks per task id, per block age (Count)
system.cpu.icache.tags.ageTaskId_1024::2           25                       # Occupied blocks per task id, per block age (Count)
system.cpu.icache.tags.ageTaskId_1024::3          189                       # Occupied blocks per task id, per block age (Count)
system.cpu.icache.tags.ageTaskId_1024::4          168                       # Occupied blocks per task id, per block age (Count)
system.cpu.icache.tags.ratioOccsTaskId::1024     0.974609                       # Ratio of occupied blocks and all blocks, per task id (Ratio)
system.cpu.icache.tags.tagAccesses           12724737                       # Number of tag accesses (Count)
system.cpu.icache.tags.dataAccesses          12724737                       # Number of data accesses (Count)
system.cpu.icache.tags.power_state.pwrStateResidencyTicks::UNDEFINED  18024843500                       # Cumulative time (in ticks) in various power states (Tick)
system.cpu.iew.idleCycles                           0                       # Number of cycles IEW is idle (Cycle)
system.cpu.iew.squashCycles                    149401                       # Number of cycles IEW is squashing (Cycle)
system.cpu.iew.blockCycles                    1166696                       # Number of cycles IEW is blocking (Cycle)
system.cpu.iew.unblockCycles                  1854207                       # Number of cycles IEW is unblocking (Cycle)
system.cpu.iew.dispatchedInsts               82696778                       # Number of instructions dispatched to IQ (Count)
system.cpu.iew.dispSquashedInsts                31539                       # Number of squashed instructions skipped by dispatch (Count)
system.cpu.iew.dispLoadInsts                 11557231                       # Number of dispatched load instructions (Count)
system.cpu.iew.dispStoreInsts                 6402875                       # Number of dispatched store instructions (Count)
system.cpu.iew.dispNonSpecInsts                    21                       # Number of dispatched non-speculative instructions (Count)
system.cpu.iew.iqFullEvents                     14456                       # Number of times the IQ has become full, causing a stall (Count)
system.cpu.iew.lsqFullEvents                  1837591                       # Number of times the LSQ has become full, causing a stall (Count)
system.cpu.iew.memOrderViolationEvents           1376                       # Number of memory order violations (Count)
system.cpu.iew.predictedTakenIncorrect          72990                       # Number of branches that were predicted taken incorrectly (Count)
system.cpu.iew.predictedNotTakenIncorrect        90664                       # Number of branches that were predicted not taken incorrectly (Count)
system.cpu.iew.branchMispredicts               163654                       # Number of branch mispredicts detected at execute (Count)
system.cpu.iew.instsToCommit                 80721423                       # Cumulative count of insts sent to commit (Count)
system.cpu.iew.writebackCount                80682460                       # Cumulative count of insts written-back (Count)
system.cpu.iew.producerInst                  56852467                       # Number of instructions producing a value (Count)
system.cpu.iew.consumerInst                  96000628                       # Number of instructions consuming a value (Count)
system.cpu.iew.wbRate                        2.238090                       # Insts written-back per cycle ((Count/Cycle))
system.cpu.iew.wbFanout                      0.592209                       # Average fanout of values written-back ((Count/Count))
system.cpu.interrupts.clk_domain.clock           8000                       # Clock period in ticks (Tick)
system.cpu.itb_walker_cache.blockedCycles::no_mshrs            0                       # number of cycles access was blocked (Cycle)
system.cpu.itb_walker_cache.blockedCycles::no_targets            0                       # number of cycles access was blocked (Cycle)
system.cpu.itb_walker_cache.blockedCauses::no_mshrs            0                       # number of times access was blocked (Count)
system.cpu.itb_walker_cache.blockedCauses::no_targets            0                       # number of times access was blocked (Count)
system.cpu.itb_walker_cache.avgBlocked::no_mshrs          nan                       # average number of cycles each access was blocked ((Cycle/Count))
system.cpu.itb_walker_cache.avgBlocked::no_targets          nan                       # average number of cycles each access was blocked ((Cycle/Count))
system.cpu.itb_walker_cache.replacements            0                       # number of replacements (Count)
system.cpu.itb_walker_cache.power_state.pwrStateResidencyTicks::UNDEFINED  18024843500                       # Cumulative time (in ticks) in various power states (Tick)
system.cpu.itb_walker_cache.tags.tagsInUse            0                       # Average ticks per tags in use ((Tick/Count))
system.cpu.itb_walker_cache.tags.totalRefs            0                       # Total number of references to valid blocks. (Count)
system.cpu.itb_walker_cache.tags.sampledRefs            0                       # Sample count of references to valid blocks. (Count)
system.cpu.itb_walker_cache.tags.avgRefs          nan                       # Average number of references to valid blocks. ((Count/Count))
system.cpu.itb_walker_cache.tags.warmupTick            0                       # The tick when the warmup percentage was hit. (Tick)
system.cpu.itb_walker_cache.tags.tagAccesses            0                       # Number of tag accesses (Count)
system.cpu.itb_walker_cache.tags.dataAccesses            0                       # Number of data accesses (Count)
system.cpu.itb_walker_cache.tags.power_state.pwrStateResidencyTicks::UNDEFINED  18024843500                       # Cumulative time (in ticks) in various power states (Tick)
system.cpu.lsq0.forwLoads                     2956738                       # Number of loads that had data forwarded from stores (Count)
system.cpu.lsq0.squashedLoads                  439355                       # Number of loads squashed (Count)
system.cpu.lsq0.ignoredResponses                  111                       # Number of memory responses ignored because the instruction is squashed (Count)
system.cpu.lsq0.memOrderViolation                1376                       # Number of memory ordering violations (Count)
system.cpu.lsq0.squashedStores                 339851                       # Number of stores squashed (Count)
system.cpu.lsq0.rescheduledLoads                    1                       # Number of loads that were rescheduled (Count)
system.cpu.lsq0.blockedByCache                   2026                       # Number of times an access to memory failed due to the cache being blocked (Count)
system.cpu.lsq0.loadToUse::samples           11117876                       # Distribution of cycle latency between the first time a load is issued and its completion (Unspecified)
system.cpu.lsq0.loadToUse::mean              6.506762                       # Distribution of cycle latency between the first time a load is issued and its completion (Unspecified)
system.cpu.lsq0.loadToUse::stdev            21.240486                       # Distribution of cycle latency between the first time a load is issued and its completion (Unspecified)
system.cpu.lsq0.loadToUse::0-9               10718144     96.40%     96.40% # Distribution of cycle latency between the first time a load is issued and its completion (Unspecified)
system.cpu.lsq0.loadToUse::10-19                 1068      0.01%     96.41% # Distribution of cycle latency between the first time a load is issued and its completion (Unspecified)
system.cpu.lsq0.loadToUse::20-29                 1556      0.01%     96.43% # Distribution of cycle latency between the first time a load is issued and its completion (Unspecified)
system.cpu.lsq0.loadToUse::30-39                 1900      0.02%     96.45% # Distribution of cycle latency between the first time a load is issued and its completion (Unspecified)
system.cpu.lsq0.loadToUse::40-49                18960      0.17%     96.62% # Distribution of cycle latency between the first time a load is issued and its completion (Unspecified)
system.cpu.lsq0.loadToUse::50-59                42045      0.38%     96.99% # Distribution of cycle latency between the first time a load is issued and its completion (Unspecified)
system.cpu.lsq0.loadToUse::60-69                  988      0.01%     97.00% # Distribution of cycle latency between the first time a load is issued and its completion (Unspecified)
system.cpu.lsq0.loadToUse::70-79                  901      0.01%     97.01% # Distribution of cycle latency between the first time a load is issued and its completion (Unspecified)
[...]
system.mem_ctrls.dram.bwWrite::total         76317778                       # Write bandwidth from this memory ((Byte/Second))
system.mem_ctrls.dram.bwTotal::writebacks     76317778                       # Total bandwidth to/from this memory ((Byte/Second))
system.mem_ctrls.dram.bwTotal::cpu.inst     192931939                       # Total bandwidth to/from this memory ((Byte/Second))
system.mem_ctrls.dram.bwTotal::cpu.data    1114593200                       # Total bandwidth to/from this memory ((Byte/Second))
system.mem_ctrls.dram.bwTotal::total       1383842917                       # Total bandwidth to/from this memory ((Byte/Second))
system.mem_ctrls.dram.readBursts               300750                       # Number of DRAM read bursts (Count)
system.mem_ctrls.dram.writeBursts                8653                       # Number of DRAM write bursts (Count)
system.mem_ctrls.dram.perBankRdBursts::0        11712                       # Per bank write bursts (Count)
system.mem_ctrls.dram.perBankRdBursts::1        66278                       # Per bank write bursts (Count)
system.mem_ctrls.dram.perBankRdBursts::2        66175                       # Per bank write bursts (Count)
system.mem_ctrls.dram.perBankRdBursts::3        71325                       # Per bank write bursts (Count)
system.mem_ctrls.dram.perBankRdBursts::4        56141                       # Per bank write bursts (Count)
system.mem_ctrls.dram.perBankRdBursts::5         1025                       # Per bank write bursts (Count)
system.mem_ctrls.dram.perBankRdBursts::6         1237                       # Per bank write bursts (Count)
system.mem_ctrls.dram.perBankRdBursts::7         5871                       # Per bank write bursts (Count)
system.mem_ctrls.dram.perBankRdBursts::8         7491                       # Per bank write bursts (Count)
system.mem_ctrls.dram.perBankRdBursts::9          851                       # Per bank write bursts (Count)
system.mem_ctrls.dram.perBankRdBursts::10          701                       # Per bank write bursts (Count)
system.mem_ctrls.dram.perBankRdBursts::11         4732                       # Per bank write bursts (Count)
system.mem_ctrls.dram.perBankRdBursts::12         1058                       # Per bank write bursts (Count)
system.mem_ctrls.dram.perBankRdBursts::13         2059                       # Per bank write bursts (Count)
system.mem_ctrls.dram.perBankRdBursts::14         2071                       # Per bank write bursts (Count)
system.mem_ctrls.dram.perBankRdBursts::15         2023                       # Per bank write bursts (Count)
system.mem_ctrls.dram.perBankWrBursts::0          551                       # Per bank write bursts (Count)
system.mem_ctrls.dram.perBankWrBursts::1          569                       # Per bank write bursts (Count)
system.mem_ctrls.dram.perBankWrBursts::2          553                       # Per bank write bursts (Count)
system.mem_ctrls.dram.perBankWrBursts::3          573                       # Per bank write bursts (Count)
system.mem_ctrls.dram.perBankWrBursts::4          546                       # Per bank write bursts (Count)
system.mem_ctrls.dram.perBankWrBursts::5          530                       # Per bank write bursts (Count)
system.mem_ctrls.dram.perBankWrBursts::6          552                       # Per bank write bursts (Count)
system.mem_ctrls.dram.perBankWrBursts::7          615                       # Per bank write bursts (Count)
system.mem_ctrls.dram.perBankWrBursts::8          551                       # Per bank write bursts (Count)
system.mem_ctrls.dram.perBankWrBursts::9          549                       # Per bank write bursts (Count)
system.mem_ctrls.dram.perBankWrBursts::10          612                       # Per bank write bursts (Count)
system.mem_ctrls.dram.perBankWrBursts::11          329                       # Per bank write bursts (Count)
system.mem_ctrls.dram.perBankWrBursts::12          474                       # Per bank write bursts (Count)
system.mem_ctrls.dram.perBankWrBursts::13          571                       # Per bank write bursts (Count)
system.mem_ctrls.dram.perBankWrBursts::14          538                       # Per bank write bursts (Count)
system.mem_ctrls.dram.perBankWrBursts::15          540                       # Per bank write bursts (Count)
system.mem_ctrls.dram.totQLat              1380076250                       # Total ticks spent queuing (Tick)
system.mem_ctrls.dram.totBusLat            1503750000                       # Total ticks spent in databus transfers (Tick)
system.mem_ctrls.dram.totMemAccLat         7019138750                       # Total ticks spent from burst creation until serviced by the DRAM (Tick)
system.mem_ctrls.dram.avgQLat                 4588.78                       # Average queueing delay per DRAM burst ((Tick/Count))
system.mem_ctrls.dram.avgBusLat               5000.00                       # Average bus latency per DRAM burst ((Tick/Count))
system.mem_ctrls.dram.avgMemAccLat           23338.78                       # Average memory access latency per DRAM burst ((Tick/Count))
system.mem_ctrls.dram.readRowHits              272790                       # Number of row buffer hits during reads (Count)
system.mem_ctrls.dram.writeRowHits               7672                       # Number of row buffer hits during writes (Count)
system.mem_ctrls.dram.readRowHitRate            90.70                       # Row buffer hit rate for reads (Ratio)
system.mem_ctrls.dram.writeRowHitRate           88.66                       # Row buffer hit rate for writes (Ratio)
system.mem_ctrls.dram.bytesPerActivate::samples        28928                       # Bytes accessed per row activation (Byte)
system.mem_ctrls.dram.bytesPerActivate::mean   684.442478                       # Bytes accessed per row activation (Byte)
system.mem_ctrls.dram.bytesPerActivate::gmean   478.839429                       # Bytes accessed per row activation (Byte)
system.mem_ctrls.dram.bytesPerActivate::stdev   401.513240                       # Bytes accessed per row activation (Byte)
system.mem_ctrls.dram.bytesPerActivate::0-127         4413     15.26%     15.26% # Bytes accessed per row activation (Byte)
system.mem_ctrls.dram.bytesPerActivate::128-255         1779      6.15%     21.40% # Bytes accessed per row activation (Byte)
system.mem_ctrls.dram.bytesPerActivate::256-383         3000     10.37%     31.78% # Bytes accessed per row activation (Byte)
system.mem_ctrls.dram.bytesPerActivate::384-511         2101      7.26%     39.04% # Bytes accessed per row activation (Byte)
system.mem_ctrls.dram.bytesPerActivate::512-639          428      1.48%     40.52% # Bytes accessed per row activation (Byte)
system.mem_ctrls.dram.bytesPerActivate::640-767          566      1.96%     42.47% # Bytes accessed per row activation (Byte)
system.mem_ctrls.dram.bytesPerActivate::768-895          460      1.59%     44.06% # Bytes accessed per row activation (Byte)
system.mem_ctrls.dram.bytesPerActivate::896-1023          506      1.75%     45.81% # Bytes accessed per row activation (Byte)
system.mem_ctrls.dram.bytesPerActivate::1024-1151        15675     54.19%    100.00% # Bytes accessed per row activation (Byte)
system.mem_ctrls.dram.bytesPerActivate::total        28928                       # Bytes accessed per row activation (Byte)
system.mem_ctrls.dram.bytesRead              19248000                       # Total bytes read (Byte)
system.mem_ctrls.dram.bytesWritten             553792                       # Total bytes written (Byte)
system.mem_ctrls.dram.avgRdBW             1067.859480                       # Average DRAM read bandwidth in MiBytes/s ((Byte/Second))
system.mem_ctrls.dram.avgWrBW               30.723817                       # Average DRAM write bandwidth in MiBytes/s ((Byte/Second))
system.mem_ctrls.dram.peakBW                 12800.00                       # Theoretical peak bandwidth in MiByte/s ((Byte/Second))
system.mem_ctrls.dram.busUtil                    8.58                       # Data bus utilization in percentage (Ratio)
system.mem_ctrls.dram.busUtilRead                8.34                       # Data bus utilization in percentage for reads (Ratio)
system.mem_ctrls.dram.busUtilWrite               0.24                       # Data bus utilization in percentage for writes (Ratio)
system.mem_ctrls.dram.pageHitRate               90.65                       # Row buffer hit rate, read and write combined (Ratio)
system.mem_ctrls.dram.power_state.pwrStateResidencyTicks::UNDEFINED  18024843500                       # Cumulative time (in ticks) in various power states (Tick)
system.mem_ctrls.dram.rank0.actEnergy       161628180                       # Energy for activate commands per rank (pJ) (Joule)
system.mem_ctrls.dram.rank0.preEnergy        85880850                       # Energy for precharge commands per rank (pJ) (Joule)
system.mem_ctrls.dram.rank0.readEnergy     1997514960                       # Energy for read commands per rank (pJ) (Joule)
system.mem_ctrls.dram.rank0.writeEnergy      23432580                       # Energy for write commands per rank (pJ) (Joule)
system.mem_ctrls.dram.rank0.refreshEnergy 1422276960.000000                       # Energy for refresh commands per rank (pJ) (Joule)
system.mem_ctrls.dram.rank0.actBackEnergy   7277414010                       # Energy for active background per rank (pJ) (Joule)
system.mem_ctrls.dram.rank0.preBackEnergy    793191360                       # Energy for precharge background per rank (pJ) (Joule)
system.mem_ctrls.dram.rank0.actPowerDownEnergy            0                       # Energy for active power-down per rank (pJ) (Joule)
system.mem_ctrls.dram.rank0.prePowerDownEnergy            0                       # Energy for precharge power-down per rank (pJ) (Joule)
system.mem_ctrls.dram.rank0.selfRefreshEnergy            0                       # Energy for self refresh per rank (pJ) (Joule)
system.mem_ctrls.dram.rank0.totalEnergy   11761338900                       # Total energy per rank (pJ) (Joule)
system.mem_ctrls.dram.rank0.averagePower   652.507130                       # Core power per rank (mW) (Watt)
system.mem_ctrls.dram.rank0.totalIdleTime            0                       # Total Idle time Per DRAM Rank (Tick)
system.mem_ctrls.dram.rank0.pwrStateTime::IDLE   1999722500                       # Time in different power states (Tick)
system.mem_ctrls.dram.rank0.pwrStateTime::REF    601640000                       # Time in different power states (Tick)
system.mem_ctrls.dram.rank0.pwrStateTime::SREF            0                       # Time in different power states (Tick)
system.mem_ctrls.dram.rank0.pwrStateTime::PRE_PDN            0                       # Time in different power states (Tick)
system.mem_ctrls.dram.rank0.pwrStateTime::ACT  15423481000                       # Time in different power states (Tick)
system.mem_ctrls.dram.rank0.pwrStateTime::ACT_PDN            0                       # Time in different power states (Tick)
system.mem_ctrls.dram.rank1.actEnergy        45010560                       # Energy for activate commands per rank (pJ) (Joule)
system.mem_ctrls.dram.rank1.preEnergy        23900910                       # Energy for precharge commands per rank (pJ) (Joule)
system.mem_ctrls.dram.rank1.readEnergy      149840040                       # Energy for read commands per rank (pJ) (Joule)
system.mem_ctrls.dram.rank1.writeEnergy      21736080                       # Energy for write commands per rank (pJ) (Joule)
system.mem_ctrls.dram.rank1.refreshEnergy 1422276960.000000                       # Energy for refresh commands per rank (pJ) (Joule)
system.mem_ctrls.dram.rank1.actBackEnergy   6799115040                       # Energy for active background per rank (pJ) (Joule)
system.mem_ctrls.dram.rank1.preBackEnergy   1195969440                       # Energy for precharge background per rank (pJ) (Joule)
system.mem_ctrls.dram.rank1.actPowerDownEnergy            0                       # Energy for active power-down per rank (pJ) (Joule)
system.mem_ctrls.dram.rank1.prePowerDownEnergy            0                       # Energy for precharge power-down per rank (pJ) (Joule)
system.mem_ctrls.dram.rank1.selfRefreshEnergy            0                       # Energy for self refresh per rank (pJ) (Joule)
system.mem_ctrls.dram.rank1.totalEnergy    9657849030                       # Total energy per rank (pJ) (Joule)
system.mem_ctrls.dram.rank1.averagePower   535.807650                       # Core power per rank (mW) (Watt)
system.mem_ctrls.dram.rank1.totalIdleTime            0                       # Total Idle time Per DRAM Rank (Tick)
system.mem_ctrls.dram.rank1.pwrStateTime::IDLE   3042129250                       # Time in different power states (Tick)
system.mem_ctrls.dram.rank1.pwrStateTime::REF    601640000                       # Time in different power states (Tick)
system.mem_ctrls.dram.rank1.pwrStateTime::SREF            0                       # Time in different power states (Tick)
system.mem_ctrls.dram.rank1.pwrStateTime::PRE_PDN            0                       # Time in different power states (Tick)
system.mem_ctrls.dram.rank1.pwrStateTime::ACT  14381074250                       # Time in different power states (Tick)
system.mem_ctrls.dram.rank1.pwrStateTime::ACT_PDN            0                       # Time in different power states (Tick)
system.mem_ctrls.power_state.pwrStateResidencyTicks::UNDEFINED  18024843500                       # Cumulative time (in ticks) in various power states (Tick)
system.membus.transDist::ReadResp              359068                       # Transaction distribution (Count)
system.membus.transDist::WritebackDirty         21494                       # Transaction distribution (Count)
system.membus.transDist::WritebackClean         53838                       # Transaction distribution (Count)
system.membus.transDist::CleanEvict            292290                       # Transaction distribution (Count)
system.membus.transDist::ReadExReq               9181                       # Transaction distribution (Count)
system.membus.transDist::ReadExResp              9181                       # Transaction distribution (Count)
system.membus.transDist::ReadCleanReq           54337                       # Transaction distribution (Count)
system.membus.transDist::ReadSharedReq         304731                       # Transaction distribution (Count)
system.membus.pktCount_system.cpu.icache.mem_side_port::system.mem_ctrls.port       162512                       # Packet count per connected requestor and responder (Count)
system.membus.pktCount_system.cpu.icache.mem_side_port::total       162512                       # Packet count per connected requestor and responder (Count)
system.membus.pktCount_system.cpu.dcache.mem_side_port::system.mem_ctrls.port       941608                       # Packet count per connected requestor and responder (Count)
system.membus.pktCount_system.cpu.dcache.mem_side_port::total       941608                       # Packet count per connected requestor and responder (Count)
system.membus.pktCount::total                 1104120                       # Packet count per connected requestor and responder (Count)
system.membus.pktSize_system.cpu.icache.mem_side_port::system.mem_ctrls.port      6923200                       # Cumulative packet size per connected requestor and responder (Byte)
system.membus.pktSize_system.cpu.icache.mem_side_port::total      6923200                       # Cumulative packet size per connected requestor and responder (Byte)
system.membus.pktSize_system.cpu.dcache.mem_side_port::system.mem_ctrls.port     21465984                       # Cumulative packet size per connected requestor and responder (Byte)
system.membus.pktSize_system.cpu.dcache.mem_side_port::total     21465984                       # Cumulative packet size per connected requestor and responder (Byte)
system.membus.pktSize::total                 28389184                       # Cumulative packet size per connected requestor and responder (Byte)
system.membus.snoops                                0                       # Total snoops (Count)
system.membus.snoopTraffic                          0                       # Total snoop traffic (Byte)
system.membus.snoopFanout::samples             368249                       # Request fanout histogram (Count)
system.membus.snoopFanout::mean              0.000011                       # Request fanout histogram (Count)
system.membus.snoopFanout::stdev             0.003296                       # Request fanout histogram (Count)
system.membus.snoopFanout::underflows               0      0.00%      0.00% # Request fanout histogram (Count)
system.membus.snoopFanout::0                   368245    100.00%    100.00% # Request fanout histogram (Count)
system.membus.snoopFanout::1                        4      0.00%    100.00% # Request fanout histogram (Count)
system.membus.snoopFanout::2                        0      0.00%    100.00% # Request fanout histogram (Count)
system.membus.snoopFanout::3                        0      0.00%    100.00% # Request fanout histogram (Count)
system.membus.snoopFanout::4                        0      0.00%    100.00% # Request fanout histogram (Count)
system.membus.snoopFanout::overflows                0      0.00%    100.00% # Request fanout histogram (Count)
system.membus.snoopFanout::min_value                0                       # Request fanout histogram (Count)
system.membus.snoopFanout::max_value                1                       # Request fanout histogram (Count)
system.membus.snoopFanout::total               368249                       # Request fanout histogram (Count)
system.membus.power_state.pwrStateResidencyTicks::UNDEFINED  18024843500                       # Cumulative time (in ticks) in various power states (Tick)
system.membus.reqLayer2.occupancy          1111898000                       # Layer occupancy (ticks) (Tick)
system.membus.reqLayer2.utilization               0.1                       # Layer utilization (Ratio)
system.membus.respLayer1.occupancy          272062249                       # Layer occupancy (ticks) (Tick)
system.membus.respLayer1.utilization              0.0                       # Layer utilization (Ratio)
system.membus.respLayer2.occupancy         1648606250                       # Layer occupancy (ticks) (Tick)
system.membus.respLayer2.utilization              0.1                       # Layer utilization (Ratio)
system.membus.snoop_filter.totRequests         735871                       # Total number of requests made to the snoop filter. (Count)
system.membus.snoop_filter.hitSingleRequests       367622                       # Number of requests hitting in the snoop filter with a single holder of the requested data. (Count)
system.membus.snoop_filter.hitMultiRequests            4                       # Number of requests hitting in the snoop filter with multiple (>1) holders of the requested data. (Count)
system.membus.snoop_filter.totSnoops                0                       # Total number of snoops made to the snoop filter. (Count)
system.membus.snoop_filter.hitSingleSnoops            0                       # Number of snoops hitting in the snoop filter with a single holder of the requested data. (Count)
system.membus.snoop_filter.hitMultiSnoops            0                       # Number of snoops hitting in the snoop filter with multiple (>1) holders of the requested data. (Count)
system.voltage_domain.voltage                       1                       # Voltage in Volts (Volt)
system.workload.inst.arm                            0                       # number of arm instructions executed (Count)
system.workload.inst.quiesce                        0                       # number of quiesce instructions executed (Count)

---------- End Simulation Statistics   ----------
