
---------- Begin Simulation Statistics ----------
simSeconds                                   0.013527                       # Number of seconds simulated (Second)
simTicks                                  13526600500                       # Number of ticks simulated (Tick)
finalTick                                 13526600500                       # Number of ticks from beginning of simulation (restored from checkpoints and never reset) (Tick)
simFreq                                  1000000000000                       # The number of ticks per simulated second ((Tick/Second))
hostSeconds                                     91.16                       # Real time elapsed on the host (Second)
hostTickRate                                148378166                       # The number of ticks simulated per host second (ticks/s) ((Tick/Second))
hostMemory                                     664884                       # Number of bytes of host memory used (Byte)
simInsts                                     41289468                       # Number of instructions simulated (Count)
simOps                                       78315814                       # Number of ops (including micro ops) simulated (Count)
hostInstRate                                   452919                       # Simulator instruction rate (inst/s) ((Count/Second))
hostOpRate                                     859074                       # Simulator op (including micro ops) rate (op/s) ((Count/Second))
system.clk_domain.clock                          1000                       # Clock period in ticks (Tick)
system.cpu.numCycles                         27053202                       # Number of cpu cycles simulated (Cycle)
system.cpu.numWorkItemsStarted                      0                       # Number of work items this cpu started (Count)
system.cpu.numWorkItemsCompleted                    0                       # Number of work items this cpu completed (Count)
system.cpu.instsAdded                        82642147                       # Number of instructions added to the IQ (excludes non-spec) (Count)
system.cpu.nonSpecInstsAdded                       54                       # Number of non-speculative instructions added to the IQ (Count)
system.cpu.instsIssued                       81018379                       # Number of instructions issued (Count)
system.cpu.squashedInstsIssued                  30683                       # Number of squashed instructions issued (Count)
system.cpu.squashedInstsExamined              4326381                       # Number of squashed instructions iterated over during squash; mainly for profiling (Count)
system.cpu.squashedOperandsExamined           6922357                       # Number of squashed operands that are examined and possibly removed from graph (Count)
system.cpu.squashedNonSpecRemoved                  36                       # Number of squashed non-spec instructions that were removed (Count)
system.cpu.numIssuedDist::samples            26343911                       # Number of insts issued each cycle (Count)
system.cpu.numIssuedDist::mean               3.075412                       # Number of insts issued each cycle (Count)
system.cpu.numIssuedDist::stdev              2.297831                       # Number of insts issued each cycle (Count)
system.cpu.numIssuedDist::underflows                0      0.00%      0.00% # Number of insts issued each cycle (Count)
system.cpu.numIssuedDist::0                   5531932     21.00%     21.00% # Number of insts issued each cycle (Count)
system.cpu.numIssuedDist::1                   1994992      7.57%     28.57% # Number of insts issued each cycle (Count)
system.cpu.numIssuedDist::2                   3876449     14.71%     43.29% # Number of insts issued each cycle (Count)
system.cpu.numIssuedDist::3                   3343051     12.69%     55.98% # Number of insts issued each cycle (Count)
system.cpu.numIssuedDist::4                   4018530     15.25%     71.23% # Number of insts issued each cycle (Count)
system.cpu.numIssuedDist::5                   3037535     11.53%     82.76% # Number of insts issued each cycle (Count)
system.cpu.numIssuedDist::6                   2532420      9.61%     92.37% # Number of insts issued each cycle (Count)
system.cpu.numIssuedDist::7                   1286995      4.89%     97.26% # Number of insts issued each cycle (Count)
system.cpu.numIssuedDist::8                    722007      2.74%    100.00% # Number of insts issued each cycle (Count)
system.cpu.numIssuedDist::overflows                 0      0.00%    100.00% # Number of insts issued each cycle (Count)
system.cpu.numIssuedDist::min_value                 0                       # Number of insts issued each cycle (Count)
system.cpu.numIssuedDist::max_value                 8                       # Number of insts issued each cycle (Count)
system.cpu.numIssuedDist::total              26343911                       # Number of insts issued each cycle (Count)
system.cpu.statFuBusy::No_OpClass                   0      0.00%      0.00% # attempts to use FU when none available (Count)
system.cpu.statFuBusy::IntAlu                  863528     64.51%     64.51% # attempts to use FU when none available (Count)
system.cpu.statFuBusy::IntMult                      0      0.00%     64.51% # attempts to use FU when none available (Count)
system.cpu.statFuBusy::IntDiv                       0      0.00%     64.51% # attempts to use FU when none available (Count)
system.cpu.statFuBusy::FloatAdd                     0      0.00%     64.51% # attempts to use FU when none available (Count)
system.cpu.statFuBusy::FloatCmp                     0      0.00%     64.51% # attempts to use FU when none available (Count)
system.cpu.statFuBusy::FloatCvt                     0      0.00%     64.51% # attempts to use FU when none available (Count)
system.cpu.statFuBusy::FloatMult                    0      0.00%     64.51% # attempts to use FU when none available (Count)
system.cpu.statFuBusy::FloatMultAcc                 0      0.00%     64.51% # attempts to use FU when none available (Count)
system.cpu.statFuBusy::FloatDiv                     0      0.00%     64.51% # attempts to use FU when none available (Count)
system.cpu.statFuBusy::FloatMisc                    0      0.00%     64.51% # attempts to use FU when none available (Count)
system.cpu.statFuBusy::FloatSqrt                    0      0.00%     64.51% # attempts to use FU when none available (Count)
system.cpu.statFuBusy::SimdAdd                      0      0.00%     64.51% # attempts to use FU when none available (Count)
system.cpu.statFuBusy::SimdAddAcc                   0      0.00%     64.51% # attempts to use FU when none available (Count)
system.cpu.statFuBusy::SimdAlu                  20245      1.51%     66.02% # attempts to use FU when none available (Count)
system.cpu.statFuBusy::SimdCmp                      0      0.00%     66.02% # attempts to use FU when none available (Count)
system.cpu.statFuBusy::SimdCvt                    127      0.01%     66.03% # attempts to use FU when none available (Count)
system.cpu.statFuBusy::SimdMisc                  8907      0.67%     66.70% # attempts to use FU when none available (Count)
system.cpu.statFuBusy::SimdMult                     0      0.00%     66.70% # attempts to use FU when none available (Count)
system.cpu.statFuBusy::SimdMultAcc                  0      0.00%     66.70% # attempts to use FU when none available (Count)
system.cpu.statFuBusy::SimdShift                    0      0.00%     66.70% # attempts to use FU when none available (Count)
system.cpu.statFuBusy::SimdShiftAcc                 0      0.00%     66.70% # attempts to use FU when none available (Count)
system.cpu.statFuBusy::SimdDiv                      0      0.00%     66.70% # attempts to use FU when none available (Count)
system.cpu.statFuBusy::SimdSqrt                     0      0.00%     66.70% # attempts to use FU when none available (Count)
system.cpu.statFuBusy::SimdFloatAdd                 0      0.00%     66.70% # attempts to use FU when none available (Count)
system.cpu.statFuBusy::SimdFloatAlu                 0      0.00%     66.70% # attempts to use FU when none available (Count)
system.cpu.statFuBusy::SimdFloatCmp                 0      0.00%     66.70% # attempts to use FU when none available (Count)
system.cpu.statFuBusy::SimdFloatCvt                 0      0.00%     66.70% # attempts to use FU when none available (Count)
system.cpu.statFuBusy::SimdFloatDiv                 0      0.00%     66.70% # attempts to use FU when none available (Count)
system.cpu.statFuBusy::SimdFloatMisc                0      0.00%     66.70% # attempts to use FU when none available (Count)
system.cpu.statFuBusy::SimdFloatMult                0      0.00%     66.70% # attempts to use FU when none available (Count)
system.cpu.statFuBusy::SimdFloatMultAcc             0      0.00%     66.70% # attempts to use FU when none available (Count)
system.cpu.statFuBusy::SimdFloatSqrt                0      0.00%     66.70% # attempts to use FU when none available (Count)
system.cpu.statFuBusy::SimdReduceAdd                0      0.00%     66.70% # attempts to use FU when none available (Count)
system.cpu.statFuBusy::SimdReduceAlu                0      0.00%     66.70% # attempts to use FU when none available (Count)
system.cpu.statFuBusy::SimdReduceCmp                0      0.00%     66.70% # attempts to use FU when none available (Count)
system.cpu.statFuBusy::SimdFloatReduceAdd            0      0.00%     66.70% # attempts to use FU when none available (Count)
system.cpu.statFuBusy::SimdFloatReduceCmp            0      0.00%     66.70% # attempts to use FU when none available (Count)
system.cpu.statFuBusy::SimdAes                      0      0.00%     66.70% # attempts to use FU when none available (Count)
system.cpu.statFuBusy::SimdAesMix                   0      0.00%     66.70% # attempts to use FU when none available (Count)
system.cpu.statFuBusy::SimdSha1Hash                 0      0.00%     66.70% # attempts to use FU when none available (Count)
system.cpu.statFuBusy::SimdSha1Hash2                0      0.00%     66.70% # attempts to use FU when none available (Count)
system.cpu.statFuBusy::SimdSha256Hash               0      0.00%     66.70% # attempts to use FU when none available (Count)
system.cpu.statFuBusy::SimdSha256Hash2              0      0.00%     66.70% # attempts to use FU when none available (Count)
system.cpu.statFuBusy::SimdShaSigma2                0      0.00%     66.70% # attempts to use FU when none available (Count)
system.cpu.statFuBusy::SimdShaSigma3                0      0.00%     66.70% # attempts to use FU when none available (Count)
system.cpu.statFuBusy::SimdPredAlu                  0      0.00%     66.70% # attempts to use FU when none available (Count)
system.cpu.statFuBusy::MemRead                 373760     27.92%     94.62% # attempts to use FU when none available (Count)
system.cpu.statFuBusy::MemWrite                 36190      2.70%     97.32% # attempts to use FU when none available (Count)
system.cpu.statFuBusy::FloatMemRead             23194      1.73%     99.06% # attempts to use FU when none available (Count)
system.cpu.statFuBusy::FloatMemWrite            12631      0.94%    100.00% # attempts to use FU when none available (Count)
system.cpu.statFuBusy::IprAccess                    0      0.00%    100.00% # attempts to use FU when none available (Count)
system.cpu.statFuBusy::InstPrefetch                 0      0.00%    100.00% # attempts to use FU when none available (Count)
system.cpu.statIssuedInstType_0::No_OpClass       867055      1.07%      1.07% # Number of instructions issued per FU type, per thread (Count)
system.cpu.statIssuedInstType_0::IntAlu      59259312     73.14%     74.21% # Number of instructions issued per FU type, per thread (Count)
system.cpu.statIssuedInstType_0::IntMult        89550      0.11%     74.32% # Number of instructions issued per FU type, per thread (Count)
system.cpu.statIssuedInstType_0::IntDiv        910370      1.12%     75.45% # Number of instructions issued per FU type, per thread (Count)
system.cpu.statIssuedInstType_0::FloatAdd       901906      1.11%     76.56% # Number of instructions issued per FU type, per thread (Count)
system.cpu.statIssuedInstType_0::FloatCmp            0      0.00%     76.56% # Number of instructions issued per FU type, per thread (Count)
system.cpu.statIssuedInstType_0::FloatCvt            0      0.00%     76.56% # Number of instructions issued per FU type, per thread (Count)
system.cpu.statIssuedInstType_0::FloatMult            0      0.00%     76.56% # Number of instructions issued per FU type, per thread (Count)
system.cpu.statIssuedInstType_0::FloatMultAcc            0      0.00%     76.56% # Number of instructions issued per FU type, per thread (Count)
system.cpu.statIssuedInstType_0::FloatDiv            0      0.00%     76.56% # Number of instructions issued per FU type, per thread (Count)
system.cpu.statIssuedInstType_0::FloatMisc            0      0.00%     76.56% # Number of instructions issued per FU type, per thread (Count)
system.cpu.statIssuedInstType_0::FloatSqrt            0      0.00%     76.56% # Number of instructions issued per FU type, per thread (Count)
system.cpu.statIssuedInstType_0::SimdAdd            0      0.00%     76.56% # Number of instructions issued per FU type, per thread (Count)
system.cpu.statIssuedInstType_0::SimdAddAcc            0      0.00%     76.56% # Number of instructions issued per FU type, per thread (Count)
system.cpu.statIssuedInstType_0::SimdAlu       288486      0.36%     76.92% # Number of instructions issued per FU type, per thread (Count)
system.cpu.statIssuedInstType_0::SimdCmp          336      0.00%     76.92% # Number of instructions issued per FU type, per thread (Count)
system.cpu.statIssuedInstType_0::SimdCvt       164811      0.20%     77.12% # Number of instructions issued per FU type, per thread (Count)
system.cpu.statIssuedInstType_0::SimdMisc       259087      0.32%     77.44% # Number of instructions issued per FU type, per thread (Count)
system.cpu.statIssuedInstType_0::SimdMult            0      0.00%     77.44% # Number of instructions issued per FU type, per thread (Count)
system.cpu.statIssuedInstType_0::SimdMultAcc            0      0.00%     77.44% # Number of instructions issued per FU type, per thread (Count)
system.cpu.statIssuedInstType_0::SimdShift            0      0.00%     77.44% # Number of instructions issued per FU type, per thread (Count)
system.cpu.statIssuedInstType_0::SimdShiftAcc            0      0.00%     77.44% # Number of instructions issued per FU type, per thread (Count)
system.cpu.statIssuedInstType_0::SimdDiv            0      0.00%     77.44% # Number of instructions issued per FU type, per thread (Count)
system.cpu.statIssuedInstType_0::SimdSqrt            0      0.00%     77.44% # Number of instructions issued per FU type, per thread (Count)
system.cpu.statIssuedInstType_0::SimdFloatAdd       278650      0.34%     77.78% # Number of instructions issued per FU type, per thread (Count)
system.cpu.statIssuedInstType_0::SimdFloatAlu            0      0.00%     77.78% # Number of instructions issued per FU type, per thread (Count)
system.cpu.statIssuedInstType_0::SimdFloatCmp            0      0.00%     77.78% # Number of instructions issued per FU type, per thread (Count)
system.cpu.statIssuedInstType_0::SimdFloatCvt        16388      0.02%     77.80% # Number of instructions issued per FU type, per thread (Count)
system.cpu.statIssuedInstType_0::SimdFloatDiv            0      0.00%     77.80% # Number of instructions issued per FU type, per thread (Count)
system.cpu.statIssuedInstType_0::SimdFloatMisc            0      0.00%     77.80% # Number of instructions issued per FU type, per thread (Count)
system.cpu.statIssuedInstType_0::SimdFloatMult       262252      0.32%     78.13% # Number of instructions issued per FU type, per thread (Count)
system.cpu.statIssuedInstType_0::SimdFloatMultAcc            0      0.00%     78.13% # Number of instructions issued per FU type, per thread (Count)
system.cpu.statIssuedInstType_0::SimdFloatSqrt            0      0.00%     78.13% # Number of instructions issued per FU type, per thread (Count)
system.cpu.statIssuedInstType_0::SimdReduceAdd            0      0.00%     78.13% # Number of instructions issued per FU type, per thread (Count)
system.cpu.statIssuedInstType_0::SimdReduceAlu            0      0.00%     78.13% # Number of instructions issued per FU type, per thread (Count)
system.cpu.statIssuedInstType_0::SimdReduceCmp            0      0.00%     78.13% # Number of instructions issued per FU type, per thread (Count)
system.cpu.statIssuedInstType_0::SimdFloatReduceAdd            0      0.00%     78.13% # Number of instructions issued per FU type, per thread (Count)
system.cpu.statIssuedInstType_0::SimdFloatReduceCmp            0      0.00%     78.13% # Number of instructions issued per FU type, per thread (Count)
system.cpu.statIssuedInstType_0::SimdAes            0      0.00%     78.13% # Number of instructions issued per FU type, per thread (Count)
system.cpu.statIssuedInstType_0::SimdAesMix            0      0.00%     78.13% # Number of instructions issued per FU type, per thread (Count)
system.cpu.statIssuedInstType_0::SimdSha1Hash            0      0.00%     78.13% # Number of instructions issued per FU type, per thread (Count)
system.cpu.statIssuedInstType_0::SimdSha1Hash2            0      0.00%     78.13% # Number of instructions issued per FU type, per thread (Count)
system.cpu.statIssuedInstType_0::SimdSha256Hash            0      0.00%     78.13% # Number of instructions issued per FU type, per thread (Count)
system.cpu.statIssuedInstType_0::SimdSha256Hash2            0      0.00%     78.13% # Number of instructions issued per FU type, per thread (Count)
system.cpu.statIssuedInstType_0::SimdShaSigma2            0      0.00%     78.13% # Number of instructions issued per FU type, per thread (Count)
system.cpu.statIssuedInstType_0::SimdShaSigma3            0      0.00%     78.13% # Number of instructions issued per FU type, per thread (Count)
system.cpu.statIssuedInstType_0::SimdPredAlu            0      0.00%     78.13% # Number of instructions issued per FU type, per thread (Count)
system.cpu.statIssuedInstType_0::MemRead     10160949     12.54%     90.67% # Number of instructions issued per FU type, per thread (Count)
system.cpu.statIssuedInstType_0::MemWrite      5452628      6.73%     97.40% # Number of instructions issued per FU type, per thread (Count)
system.cpu.statIssuedInstType_0::FloatMemRead      1343672      1.66%     99.06% # Number of instructions issued per FU type, per thread (Count)
system.cpu.statIssuedInstType_0::FloatMemWrite       762927      0.94%    100.00% # Number of instructions issued per FU type, per thread (Count)
system.cpu.statIssuedInstType_0::IprAccess            0      0.00%    100.00% # Number of instructions issued per FU type, per thread (Count)
system.cpu.statIssuedInstType_0::InstPrefetch            0      0.00%    100.00% # Number of instructions issued per FU type, per thread (Count)
system.cpu.statIssuedInstType_0::total       81018379                       # Number of instructions issued per FU type, per thread (Count)
system.cpu.issueRate                         2.994780                       # Inst issue rate ((Count/Cycle))
system.cpu.fuBusy                             1338582                       # FU busy when requested (Count)
system.cpu.fuBusyRate                        0.016522                       # FU busy rate (busy events/executed inst) ((Count/Count))
system.cpu.intInstQueueReads                181042451                       # Number of integer instruction queue reads (Count)
system.cpu.intInstQueueWrites                82504127                       # Number of integer instruction queue writes (Count)
system.cpu.intInstQueueWakeupAccesses        76250228                       # Number of integer instruction queue wakeup accesses (Count)
system.cpu.fpInstQueueReads                   8707483                       # Number of floating instruction queue reads (Count)
system.cpu.fpInstQueueWrites                  4465466                       # Number of floating instruction queue writes (Count)
system.cpu.fpInstQueueWakeupAccesses          4308047                       # Number of floating instruction queue wakeup accesses (Count)
system.cpu.vecInstQueueReads                        0                       # Number of vector instruction queue reads (Count)
system.cpu.vecInstQueueWrites                       0                       # Number of vector instruction queue writes (Count)
system.cpu.vecInstQueueWakeupAccesses               0                       # Number of vector instruction queue wakeup accesses (Count)
system.cpu.intAluAccesses                    77105166                       # Number of integer alu accesses (Count)
system.cpu.fpAluAccesses                      4384740                       # Number of floating point alu accesses (Count)
system.cpu.vecAluAccesses                           0                       # Number of vector alu accesses (Count)
system.cpu.numInsts                          80631022                       # Number of executed instructions (Count)
system.cpu.numLoadInsts                      11456944                       # Number of load instructions executed (Count)
system.cpu.numSquashedInsts                    387357                       # Number of squashed instructions skipped in execute (Count)
system.cpu.numSwp                                   0                       # Number of swp insts executed (Count)
system.cpu.numNop                                   0                       # Number of nop insts executed (Count)
system.cpu.numRefs                           17624417                       # Number of memory reference insts executed (Count)
system.cpu.numBranches                        8635736                       # Number of branches executed (Count)
system.cpu.numStoreInsts                      6167473                       # Number of stores executed (Count)
system.cpu.numRate                           2.980461                       # Inst execution rate ((Count/Cycle))
system.cpu.timesIdled                           35754                       # Number of times that the entire CPU went into an idle state and unscheduled itself (Count)
system.cpu.idleCycles                          709291                       # Total number of cycles that the CPU has spent unscheduled due to idling (Cycle)
system.cpu.committedInsts                    41289468                       # Number of Instructions Simulated (Count)
system.cpu.committedOps                      78315814                       # Number of Ops (including micro ops) Simulated (Count)
system.cpu.cpi                               0.655208                       # CPI: Cycles Per Instruction ((Cycle/Count))
system.cpu.totalCpi                          0.655208                       # CPI: Total CPI of All Threads ((Cycle/Count))
system.cpu.ipc                               1.526232                       # IPC: Instructions Per Cycle ((Count/Cycle))
system.cpu.totalIpc                          1.526232                       # IPC: Total IPC of All Threads ((Count/Cycle))
system.cpu.intRegfileReads                  124767551                       # Number of integer regfile reads (Count)
system.cpu.intRegfileWrites                  63425165                       # Number of integer regfile writes (Count)
system.cpu.fpRegfileReads                     3891035                       # Number of floating regfile reads (Count)
system.cpu.fpRegfileWrites                    3363799                       # Number of floating regfile writes (Count)
system.cpu.ccRegfileReads                    44170706                       # number of cc regfile reads (Count)
system.cpu.ccRegfileWrites                   26324782                       # number of cc regfile writes (Count)
system.cpu.miscRegfileReads                  32553729                       # number of misc regfile reads (Count)
system.cpu.MemDepUnit__0.insertedLoads       11571037                       # Number of loads inserted to the mem dependence unit. (Count)
system.cpu.MemDepUnit__0.insertedStores       6395508                       # Number of stores inserted to the mem dependence unit. (Count)
system.cpu.MemDepUnit__0.conflictingLoads      2893747                       # Number of conflicting loads. (Count)
system.cpu.MemDepUnit__0.conflictingStores      1093129                       # Number of conflicting stores. (Count)
system.cpu.MemDepUnit__1.insertedLoads              0                       # Number of loads inserted to the mem dependence unit. (Count)
system.cpu.MemDepUnit__1.insertedStores             0                       # Number of stores inserted to the mem dependence unit. (Count)
system.cpu.MemDepUnit__1.conflictingLoads            0                       # Number of conflicting loads. (Count)
system.cpu.MemDepUnit__1.conflictingStores            0                       # Number of conflicting stores. (Count)
system.cpu.MemDepUnit__2.insertedLoads              0                       # Number of loads inserted to the mem dependence unit. (Count)
system.cpu.MemDepUnit__2.insertedStores             0                       # Number of stores inserted to the mem dependence unit. (Count)
system.cpu.MemDepUnit__2.conflictingLoads            0                       # Number of conflicting loads. (Count)
system.cpu.MemDepUnit__2.conflictingStores            0                       # Number of conflicting stores. (Count)
system.cpu.MemDepUnit__3.insertedLoads              0                       # Number of loads inserted to the mem dependence unit. (Count)
system.cpu.MemDepUnit__3.insertedStores             0                       # Number of stores inserted to the mem dependence unit. (Count)
system.cpu.MemDepUnit__3.conflictingLoads            0                       # Number of conflicting loads. (Count)
system.cpu.MemDepUnit__3.conflictingStores            0                       # Number of conflicting stores. (Count)
system.cpu.branchPred.lookups                 9483898                       # Number of BP lookups (Count)
system.cpu.branchPred.condPredicted           7652485                       # Number of conditional branches predicted (Count)
system.cpu.branchPred.condIncorrect            156652                       # Number of conditional branches incorrect (Count)
system.cpu.branchPred.BTBLookups              5545407                       # Number of BTB lookups (Count)
system.cpu.branchPred.BTBHits                 5492954                       # Number of BTB hits (Count)
system.cpu.branchPred.BTBHitRatio            0.990541                       # BTB Hit Ratio (Ratio)
system.cpu.branchPred.RASUsed                  522684                       # Number of times the RAS was used to get a target. (Count)
system.cpu.branchPred.RASIncorrect                  0                       # Number of incorrect RAS predictions. (Count)
system.cpu.branchPred.indirectLookups          109811                       # Number of indirect predictor lookups. (Count)
system.cpu.branchPred.indirectHits             108764                       # Number of indirect target hits. (Count)
system.cpu.branchPred.indirectMisses             1047                       # Number of indirect misses. (Count)
system.cpu.branchPred.indirectMispredicted          177                       # Number of mispredicted indirect branches. (Count)
system.cpu.commit.commitSquashedInsts         4133057                       # The number of squashed insts skipped by commit (Count)
system.cpu.commit.commitNonSpecStalls              18                       # The number of times commit has been forced to stall to communicate backwards (Count)
system.cpu.commit.branchMispredicts            144009                       # The number of times a branch was mispredicted (Count)
system.cpu.commit.numCommittedDist::samples     25756017                       # Number of insts commited each cycle (Count)
system.cpu.commit.numCommittedDist::mean     3.040680                       # Number of insts commited each cycle (Count)
system.cpu.commit.numCommittedDist::stdev     2.906811                       # Number of insts commited each cycle (Count)
system.cpu.commit.numCommittedDist::underflows            0      0.00%      0.00% # Number of insts commited each cycle (Count)
system.cpu.commit.numCommittedDist::0         6432920     24.98%     24.98% # Number of insts commited each cycle (Count)
system.cpu.commit.numCommittedDist::1         3927311     15.25%     40.22% # Number of insts commited each cycle (Count)
system.cpu.commit.numCommittedDist::2         3550095     13.78%     54.01% # Number of insts commited each cycle (Count)
system.cpu.commit.numCommittedDist::3         3352855     13.02%     67.03% # Number of insts commited each cycle (Count)
system.cpu.commit.numCommittedDist::4         1532236      5.95%     72.97% # Number of insts commited each cycle (Count)
system.cpu.commit.numCommittedDist::5          775668      3.01%     75.99% # Number of insts commited each cycle (Count)
system.cpu.commit.numCommittedDist::6          784227      3.04%     79.03% # Number of insts commited each cycle (Count)
system.cpu.commit.numCommittedDist::7          688538      2.67%     81.70% # Number of insts commited each cycle (Count)
system.cpu.commit.numCommittedDist::8         4712167     18.30%    100.00% # Number of insts commited each cycle (Count)
system.cpu.commit.numCommittedDist::overflows            0      0.00%    100.00% # Number of insts commited each cycle (Count)
system.cpu.commit.numCommittedDist::min_value            0                       # Number of insts commited each cycle (Count)
system.cpu.commit.numCommittedDist::max_value            8                       # Number of insts commited each cycle (Count)
system.cpu.commit.numCommittedDist::total     25756017                       # Number of insts commited each cycle (Count)
system.cpu.commit.instsCommitted             41289468                       # Number of instructions committed (Count)
system.cpu.commit.opsCommitted               78315814                       # Number of ops (including micro ops) committed (Count)
system.cpu.commit.memRefs                    17180900                       # Number of memory references committed (Count)
system.cpu.commit.loads                      11117876                       # Number of loads committed (Count)
system.cpu.commit.amos                              0                       # Number of atomic instructions committed (Count)
system.cpu.commit.membars                          12                       # Number of memory barriers committed (Count)
system.cpu.commit.branches                    8399625                       # Number of branches committed (Count)
system.cpu.commit.vectorInstructions                0                       # Number of committed Vector instructions. (Count)
system.cpu.commit.floating                    4284466                       # Number of committed floating point instructions. (Count)
system.cpu.commit.integer                    74436717                       # Number of committed integer instructions. (Count)
system.cpu.commit.functionCalls                491734                       # Number of function calls committed. (Count)
system.cpu.commit.committedInstType_0::No_OpClass       850890      1.09%      1.09% # Class of committed instruction (Count)
system.cpu.commit.committedInstType_0::IntAlu     57163185     72.99%     74.08% # Class of committed instruction (Count)
system.cpu.commit.committedInstType_0::IntMult        89549      0.11%     74.19% # Class of committed instruction (Count)
system.cpu.commit.committedInstType_0::IntDiv       882475      1.13%     75.32% # Class of committed instruction (Count)
system.cpu.commit.committedInstType_0::FloatAdd       880794      1.12%     76.44% # Class of committed instruction (Count)
system.cpu.commit.committedInstType_0::FloatCmp            0      0.00%     76.44% # Class of committed instruction (Count)
system.cpu.commit.committedInstType_0::FloatCvt            0      0.00%     76.44% # Class of committed instruction (Count)
system.cpu.commit.committedInstType_0::FloatMult            0      0.00%     76.44% # Class of committed instruction (Count)
system.cpu.commit.committedInstType_0::FloatMultAcc            0      0.00%     76.44% # Class of committed instruction (Count)
system.cpu.commit.committedInstType_0::FloatDiv            0      0.00%     76.44% # Class of committed instruction (Count)
system.cpu.commit.committedInstType_0::FloatMisc            0      0.00%     76.44% # Class of committed instruction (Count)
system.cpu.commit.committedInstType_0::FloatSqrt            0      0.00%     76.44% # Class of committed instruction (Count)
system.cpu.commit.committedInstType_0::SimdAdd            0      0.00%     76.44% # Class of committed instruction (Count)
system.cpu.commit.committedInstType_0::SimdAddAcc            0      0.00%     76.44% # Class of committed instruction (Count)
system.cpu.commit.committedInstType_0::SimdAlu       287296      0.37%     76.81% # Class of committed instruction (Count)
system.cpu.commit.committedInstType_0::SimdCmp          336      0.00%     76.81% # Class of committed instruction (Count)
system.cpu.commit.committedInstType_0::SimdCvt       164462      0.21%     77.02% # Class of committed instruction (Count)
system.cpu.commit.committedInstType_0::SimdMisc       258871      0.33%     77.35% # Class of committed instruction (Count)
system.cpu.commit.committedInstType_0::SimdMult            0      0.00%     77.35% # Class of committed instruction (Count)
system.cpu.commit.committedInstType_0::SimdMultAcc            0      0.00%     77.35% # Class of committed instruction (Count)
system.cpu.commit.committedInstType_0::SimdShift            0      0.00%     77.35% # Class of committed instruction (Count)
system.cpu.commit.committedInstType_0::SimdShiftAcc            0      0.00%     77.35% # Class of committed instruction (Count)
system.cpu.commit.committedInstType_0::SimdDiv            0      0.00%     77.35% # Class of committed instruction (Count)
system.cpu.commit.committedInstType_0::SimdSqrt            0      0.00%     77.35% # Class of committed instruction (Count)
system.cpu.commit.committedInstType_0::SimdFloatAdd       278528      0.36%     77.71% # Class of committed instruction (Count)
system.cpu.commit.committedInstType_0::SimdFloatAlu            0      0.00%     77.71% # Class of committed instruction (Count)
system.cpu.commit.committedInstType_0::SimdFloatCmp            0      0.00%     77.71% # Class of committed instruction (Count)
system.cpu.commit.committedInstType_0::SimdFloatCvt        16384      0.02%     77.73% # Class of committed instruction (Count)
system.cpu.commit.committedInstType_0::SimdFloatDiv            0      0.00%     77.73% # Class of committed instruction (Count)
system.cpu.commit.committedInstType_0::SimdFloatMisc            0      0.00%     77.73% # Class of committed instruction (Count)
system.cpu.commit.committedInstType_0::SimdFloatMult       262144      0.33%     78.06% # Class of committed instruction (Count)
system.cpu.commit.committedInstType_0::SimdFloatMultAcc            0      0.00%     78.06% # Class of committed instruction (Count)
system.cpu.commit.committedInstType_0::SimdFloatSqrt            0      0.00%     78.06% # Class of committed instruction (Count)
system.cpu.commit.committedInstType_0::SimdReduceAdd            0      0.00%     78.06% # Class of committed instruction (Count)
system.cpu.commit.committedInstType_0::SimdReduceAlu            0      0.00%     78.06% # Class of committed instruction (Count)
system.cpu.commit.committedInstType_0::SimdReduceCmp            0      0.00%     78.06% # Class of committed instruction (Count)
system.cpu.commit.committedInstType_0::SimdFloatReduceAdd            0      0.00%     78.06% # Class of committed instruction (Count)
system.cpu.commit.committedInstType_0::SimdFloatReduceCmp            0      0.00%     78.06% # Class of committed instruction (Count)
system.cpu.commit.committedInstType_0::SimdAes            0      0.00%     78.06% # Class of committed instruction (Count)
system.cpu.commit.committedInstType_0::SimdAesMix            0      0.00%     78.06% # Class of committed instruction (Count)
system.cpu.commit.committedInstType_0::SimdSha1Hash            0      0.00%     78.06% # Class of committed instruction (Count)
system.cpu.commit.committedInstType_0::SimdSha1Hash2            0      0.00%     78.06% # Class of committed instruction (Count)
system.cpu.commit.committedInstType_0::SimdSha256Hash            0      0.00%     78.06% # Class of committed instruction (Count)
system.cpu.commit.committedInstType_0::SimdSha256Hash2            0      0.00%     78.06% # Class of committed instruction (Count)
system.cpu.commit.committedInstType_0::SimdShaSigma2            0      0.00%     78.06% # Class of committed instruction (Count)
system.cpu.commit.committedInstType_0::SimdShaSigma3            0      0.00%     78.06% # Class of committed instruction (Count)
system.cpu.commit.committedInstType_0::SimdPredAlu            0      0.00%     78.06% # Class of committed instruction (Count)
system.cpu.commit.committedInstType_0::MemRead      9777520     12.48%     90.55% # Class of committed instruction (Count)
system.cpu.commit.committedInstType_0::MemWrite      5308845      6.78%     97.33% # Class of committed instruction (Count)
system.cpu.commit.committedInstType_0::FloatMemRead      1340356      1.71%     99.04% # Class of committed instruction (Count)
system.cpu.commit.committedInstType_0::FloatMemWrite       754179      0.96%    100.00% # Class of committed instruction (Count)
system.cpu.commit.committedInstType_0::IprAccess            0      0.00%    100.00% # Class of committed instruction (Count)
system.cpu.commit.committedInstType_0::InstPrefetch            0      0.00%    100.00% # Class of committed instruction (Count)
system.cpu.commit.committedInstType_0::total     78315814                       # Class of committed instruction (Count)
system.cpu.commit.commitEligibleSamples       4712167                       # number cycles where commit BW limit reached (Cycle)
system.cpu.dcache.demandHits::cpu.data       14371322                       # number of demand (read+write) hits (Count)
system.cpu.dcache.demandHits::total          14371322                       # number of demand (read+write) hits (Count)
system.cpu.dcache.overallHits::cpu.data      14371322                       # number of overall hits (Count)
system.cpu.dcache.overallHits::total         14371322                       # number of overall hits (Count)
system.cpu.dcache.demandMisses::cpu.data        57904                       # number of demand (read+write) misses (Count)
system.cpu.dcache.demandMisses::total           57904                       # number of demand (read+write) misses (Count)
system.cpu.dcache.overallMisses::cpu.data        57904                       # number of overall misses (Count)
system.cpu.dcache.overallMisses::total          57904                       # number of overall misses (Count)
system.cpu.dcache.demandMissLatency::cpu.data   3221022999                       # number of demand (read+write) miss ticks (Tick)
system.cpu.dcache.demandMissLatency::total   3221022999                       # number of demand (read+write) miss ticks (Tick)
system.cpu.dcache.overallMissLatency::cpu.data   3221022999                       # number of overall miss ticks (Tick)
system.cpu.dcache.overallMissLatency::total   3221022999                       # number of overall miss ticks (Tick)
system.cpu.dcache.demandAccesses::cpu.data     14429226                       # number of demand (read+write) accesses (Count)
system.cpu.dcache.demandAccesses::total      14429226                       # number of demand (read+write) accesses (Count)
system.cpu.dcache.overallAccesses::cpu.data     14429226                       # number of overall (read+write) accesses (Count)
system.cpu.dcache.overallAccesses::total     14429226                       # number of overall (read+write) accesses (Count)
system.cpu.dcache.demandMissRate::cpu.data     0.004013                       # miss rate for demand accesses (Ratio)
system.cpu.dcache.demandMissRate::total      0.004013                       # miss rate for demand accesses (Ratio)
system.cpu.dcache.overallMissRate::cpu.data     0.004013                       # miss rate for overall accesses (Ratio)
system.cpu.dcache.overallMissRate::total     0.004013                       # miss rate for overall accesses (Ratio)
system.cpu.dcache.demandAvgMissLatency::cpu.data 55626.951489                       # average overall miss latency ((Cycle/Count))
system.cpu.dcache.demandAvgMissLatency::total 55626.951489                       # average overall miss latency ((Cycle/Count))
system.cpu.dcache.overallAvgMissLatency::cpu.data 55626.951489                       # average overall miss latency ((Cycle/Count))
system.cpu.dcache.overallAvgMissLatency::total 55626.951489                       # average overall miss latency ((Cycle/Count))
system.cpu.dcache.blockedCycles::no_mshrs         3542                       # number of cycles access was blocked (Cycle)
system.cpu.dcache.blockedCycles::no_targets            0                       # number of cycles access was blocked (Cycle)
system.cpu.dcache.blockedCauses::no_mshrs           72                       # number of times access was blocked (Count)
system.cpu.dcache.blockedCauses::no_targets            0                       # number of times access was blocked (Count)
system.cpu.dcache.avgBlocked::no_mshrs      49.194444                       # average number of cycles each access was blocked ((Cycle/Count))
system.cpu.dcache.avgBlocked::no_targets          nan                       # average number of cycles each access was blocked ((Cycle/Count))
system.cpu.dcache.writebacks::writebacks        11204                       # number of writebacks (Count)
system.cpu.dcache.writebacks::total             11204                       # number of writebacks (Count)
system.cpu.dcache.demandMshrHits::cpu.data        25454                       # number of demand (read+write) MSHR hits (Count)
system.cpu.dcache.demandMshrHits::total         25454                       # number of demand (read+write) MSHR hits (Count)
system.cpu.dcache.overallMshrHits::cpu.data        25454                       # number of overall MSHR hits (Count)
system.cpu.dcache.overallMshrHits::total        25454                       # number of overall MSHR hits (Count)
system.cpu.dcache.demandMshrMisses::cpu.data        32450                       # number of demand (read+write) MSHR misses (Count)
system.cpu.dcache.demandMshrMisses::total        32450                       # number of demand (read+write) MSHR misses (Count)
system.cpu.dcache.overallMshrMisses::cpu.data        32450                       # number of overall MSHR misses (Count)
system.cpu.dcache.overallMshrMisses::total        32450                       # number of overall MSHR misses (Count)
system.cpu.dcache.demandMshrMissLatency::cpu.data   1750241999                       # number of demand (read+write) MSHR miss ticks (Tick)
system.cpu.dcache.demandMshrMissLatency::total   1750241999                       # number of demand (read+write) MSHR miss ticks (Tick)
system.cpu.dcache.overallMshrMissLatency::cpu.data   1750241999                       # number of overall MSHR miss ticks (Tick)
system.cpu.dcache.overallMshrMissLatency::total   1750241999                       # number of overall MSHR miss ticks (Tick)
system.cpu.dcache.demandMshrMissRate::cpu.data     0.002249                       # mshr miss ratio for demand accesses (Ratio)
system.cpu.dcache.demandMshrMissRate::total     0.002249                       # mshr miss ratio for demand accesses (Ratio)
system.cpu.dcache.overallMshrMissRate::cpu.data     0.002249                       # mshr miss ratio for overall accesses (Ratio)
system.cpu.dcache.overallMshrMissRate::total     0.002249                       # mshr miss ratio for overall accesses (Ratio)
system.cpu.dcache.demandAvgMshrMissLatency::cpu.data 53936.579322                       # average overall mshr miss latency ((Cycle/Count))
system.cpu.dcache.demandAvgMshrMissLatency::total 53936.579322                       # average overall mshr miss latency ((Cycle/Count))
system.cpu.dcache.overallAvgMshrMissLatency::cpu.data 53936.579322                       # average overall mshr miss latency ((Cycle/Count))
system.cpu.dcache.overallAvgMshrMissLatency::total 53936.579322                       # average overall mshr miss latency ((Cycle/Count))
system.cpu.dcache.replacements                  31938                       # number of replacements (Count)
system.cpu.dcache.ReadReq.hits::cpu.data      8315729                       # number of ReadReq hits (Count)
system.cpu.dcache.ReadReq.hits::total         8315729                       # number of ReadReq hits (Count)
system.cpu.dcache.ReadReq.misses::cpu.data        50472                       # number of ReadReq misses (Count)
system.cpu.dcache.ReadReq.misses::total         50472                       # number of ReadReq misses (Count)
system.cpu.dcache.ReadReq.missLatency::cpu.data   2902849000                       # number of ReadReq miss ticks (Tick)
system.cpu.dcache.ReadReq.missLatency::total   2902849000                       # number of ReadReq miss ticks (Tick)
system.cpu.dcache.ReadReq.accesses::cpu.data      8366201                       # number of ReadReq accesses(hits+misses) (Count)
system.cpu.dcache.ReadReq.accesses::total      8366201                       # number of ReadReq accesses(hits+misses) (Count)
system.cpu.dcache.ReadReq.missRate::cpu.data     0.006033                       # miss rate for ReadReq accesses (Ratio)
system.cpu.dcache.ReadReq.missRate::total     0.006033                       # miss rate for ReadReq accesses (Ratio)
system.cpu.dcache.ReadReq.avgMissLatency::cpu.data 57514.047393                       # average ReadReq miss latency ((Tick/Count))
system.cpu.dcache.ReadReq.avgMissLatency::total 57514.047393                       # average ReadReq miss latency ((Tick/Count))
system.cpu.dcache.ReadReq.mshrHits::cpu.data        25437                       # number of ReadReq MSHR hits (Count)
system.cpu.dcache.ReadReq.mshrHits::total        25437                       # number of ReadReq MSHR hits (Count)
system.cpu.dcache.ReadReq.mshrMisses::cpu.data        25035                       # number of ReadReq MSHR misses (Count)
system.cpu.dcache.ReadReq.mshrMisses::total        25035                       # number of ReadReq MSHR misses (Count)
system.cpu.dcache.ReadReq.mshrMissLatency::cpu.data   1440018500                       # number of ReadReq MSHR miss ticks (Tick)
system.cpu.dcache.ReadReq.mshrMissLatency::total   1440018500                       # number of ReadReq MSHR miss ticks (Tick)
system.cpu.dcache.ReadReq.mshrMissRate::cpu.data     0.002992                       # mshr miss rate for ReadReq accesses (Ratio)
system.cpu.dcache.ReadReq.mshrMissRate::total     0.002992                       # mshr miss rate for ReadReq accesses (Ratio)
system.cpu.dcache.ReadReq.avgMshrMissLatency::cpu.data 57520.211704                       # average ReadReq mshr miss latency ((Tick/Count))
system.cpu.dcache.ReadReq.avgMshrMissLatency::total 57520.211704                       # average ReadReq mshr miss latency ((Tick/Count))
system.cpu.dcache.WriteReq.hits::cpu.data      6055593                       # number of WriteReq hits (Count)
system.cpu.dcache.WriteReq.hits::total        6055593                       # number of WriteReq hits (Count)
system.cpu.dcache.WriteReq.misses::cpu.data         7432                       # number of WriteReq misses (Count)
system.cpu.dcache.WriteReq.misses::total         7432                       # number of WriteReq misses (Count)
system.cpu.dcache.WriteReq.missLatency::cpu.data    318173999                       # number of WriteReq miss ticks (Tick)
system.cpu.dcache.WriteReq.missLatency::total    318173999                       # number of WriteReq miss ticks (Tick)
system.cpu.dcache.WriteReq.accesses::cpu.data      6063025                       # number of WriteReq accesses(hits+misses) (Count)
system.cpu.dcache.WriteReq.accesses::total      6063025                       # number of WriteReq accesses(hits+misses) (Count)
system.cpu.dcache.WriteReq.missRate::cpu.data     0.001226                       # miss rate for WriteReq accesses (Ratio)
system.cpu.dcache.WriteReq.missRate::total     0.001226                       # miss rate for WriteReq accesses (Ratio)
system.cpu.dcache.WriteReq.avgMissLatency::cpu.data 42811.356163                       # average WriteReq miss latency ((Tick/Count))
system.cpu.dcache.WriteReq.avgMissLatency::total 42811.356163                       # average WriteReq miss latency ((Tick/Count))
system.cpu.dcache.WriteReq.mshrHits::cpu.data           17                       # number of WriteReq MSHR hits (Count)
system.cpu.dcache.WriteReq.mshrHits::total           17                       # number of WriteReq MSHR hits (Count)
system.cpu.dcache.WriteReq.mshrMisses::cpu.data         7415                       # number of WriteReq MSHR misses (Count)
system.cpu.dcache.WriteReq.mshrMisses::total         7415                       # number of WriteReq MSHR misses (Count)
system.cpu.dcache.WriteReq.mshrMissLatency::cpu.data    310223499                       # number of WriteReq MSHR miss ticks (Tick)
system.cpu.dcache.WriteReq.mshrMissLatency::total    310223499                       # number of WriteReq MSHR miss ticks (Tick)
system.cpu.dcache.WriteReq.mshrMissRate::cpu.data     0.001223                       # mshr miss rate for WriteReq accesses (Ratio)
system.cpu.dcache.WriteReq.mshrMissRate::total     0.001223                       # mshr miss rate for WriteReq accesses (Ratio)
system.cpu.dcache.WriteReq.avgMshrMissLatency::cpu.data 41837.289144                       # average WriteReq mshr miss latency ((Tick/Count))
system.cpu.dcache.WriteReq.avgMshrMissLatency::total 41837.289144                       # average WriteReq mshr miss latency ((Tick/Count))
system.cpu.dcache.power_state.pwrStateResidencyTicks::UNDEFINED  13526600500                       # Cumulative time (in ticks) in various power states (Tick)
system.cpu.dcache.tags.tagsInUse           510.910598                       # Average ticks per tags in use ((Tick/Count))
system.cpu.dcache.tags.totalRefs             14403772                       # Total number of references to valid blocks. (Count)
system.cpu.dcache.tags.sampledRefs              32450                       # Sample count of references to valid blocks. (Count)
system.cpu.dcache.tags.avgRefs             443.875871                       # Average number of references to valid blocks. ((Count/Count))
system.cpu.dcache.tags.warmupTick              145000                       # The tick when the warmup percentage was hit. (Tick)
system.cpu.dcache.tags.occupancies::cpu.data   510.910598                       # Average occupied blocks per tick, per requestor ((Count/Tick))
system.cpu.dcache.tags.avgOccs::cpu.data     0.997872                       # Average percentage of cache occupancy ((Ratio/Tick))
system.cpu.dcache.tags.avgOccs::total        0.997872                       # Average percentage of cache occupancy ((Ratio/Tick))
system.cpu.dcache.tags.occupanciesTaskId::1024          512                       # Occupied blocks per task id (Count)
system.cpu.dcache.tags.ageTaskId_1024::0           78                       # Occupied blocks per task id, per block age (Count)
system.cpu.dcache.tags.ageTaskId_1024::1          434                       # Occupied blocks per task id, per block age (Count)
system.cpu.dcache.tags.ratioOccsTaskId::1024            1                       # Ratio of occupied blocks and all blocks, per task id (Ratio)
system.cpu.dcache.tags.tagAccesses           28890902                       # Number of tag accesses (Count)
system.cpu.dcache.tags.dataAccesses          28890902                       # Number of data accesses (Count)
system.cpu.dcache.tags.power_state.pwrStateResidencyTicks::UNDEFINED  13526600500                       # Cumulative time (in ticks) in various power states (Tick)
system.cpu.decode.idleCycles                  7233255                       # Number of cycles decode is idle (Cycle)
system.cpu.decode.blockedCycles               5869153                       # Number of cycles decode is blocked (Cycle)
system.cpu.decode.runCycles                  11758359                       # Number of cycles decode is running (Cycle)
system.cpu.decode.unblockCycles               1334097                       # Number of cycles decode is unblocking (Cycle)
system.cpu.decode.squashCycles                 149047                       # Number of cycles decode is squashing (Cycle)
system.cpu.decode.branchResolved              5224347                       # Number of times decode resolved a branch (Count)
system.cpu.decode.branchMispred                 12805                       # Number of times decode detected a branch misprediction (Count)
system.cpu.decode.decodedInsts               84198237                       # Number of instructions handled by decode (Count)
system.cpu.decode.squashedInsts                 78824                       # Number of squashed instructions handled by decode (Count)
system.cpu.dtb_walker_cache.blockedCycles::no_mshrs            0                       # number of cycles access was blocked (Cycle)
system.cpu.dtb_walker_cache.blockedCycles::no_targets            0                       # number of cycles access was blocked (Cycle)
system.cpu.dtb_walker_cache.blockedCauses::no_mshrs            0                       # number of times access was blocked (Count)
system.cpu.dtb_walker_cache.blockedCauses::no_targets            0                       # number of times access was blocked (Count)
system.cpu.dtb_walker_cache.avgBlocked::no_mshrs          nan                       # average number of cycles each access was blocked ((Cycle/Count))
system.cpu.dtb_walker_cache.avgBlocked::no_targets          nan                       # average number of cycles each access was blocked ((Cycle/Count))
system.cpu.dtb_walker_cache.replacements            0                       # number of replacements (Count)
system.cpu.dtb_walker_cache.power_state.pwrStateResidencyTicks::UNDEFINED  13526600500                       # Cumulative time (in ticks) in various power states (Tick)
system.cpu.dtb_walker_cache.tags.tagsInUse            0                       # Average ticks per tags in use ((Tick/Count))
system.cpu.dtb_walker_cache.tags.totalRefs            0                       # Total number of references to valid blocks. (Count)
system.cpu.dtb_walker_cache.tags.sampledRefs            0                       # Sample count of references to valid blocks. (Count)
system.cpu.dtb_walker_cache.tags.avgRefs          nan                       # Average number of references to valid blocks. ((Count/Count))
system.cpu.dtb_walker_cache.tags.warmupTick            0                       # The tick when the warmup percentage was hit. (Tick)
system.cpu.dtb_walker_cache.tags.tagAccesses            0                       # Number of tag accesses (Count)
system.cpu.dtb_walker_cache.tags.dataAccesses            0                       # Number of data accesses (Count)
system.cpu.dtb_walker_cache.tags.power_state.pwrStateResidencyTicks::UNDEFINED  13526600500                       # Cumulative time (in ticks) in various power states (Tick)
system.cpu.fetch.icacheStallCycles            8039422                       # Number of cycles fetch is stalled on an Icache miss (Cycle)
system.cpu.fetch.insts                       44469192                       # Number of instructions fetch has processed (Count)
system.cpu.fetch.branches                     9483898                       # Number of branches that fetch encountered (Count)
system.cpu.fetch.predictedBranches            6124402                       # Number of branches that fetch has predicted taken (Count)
system.cpu.fetch.cycles                      18140864                       # Number of cycles fetch has run and was not squashing or blocked (Cycle)
system.cpu.fetch.squashCycles                  323676                       # Number of cycles fetch has spent squashing (Cycle)
system.cpu.fetch.miscStallCycles                  166                       # Number of cycles fetch has spent waiting on interrupts, or bad addresses, or out of MSHRs (Cycle)
system.cpu.fetch.pendingTrapStallCycles           971                       # Number of stall cycles due to pending traps (Cycle)
system.cpu.fetch.pendingQuiesceStallCycles            2                       # Number of stall cycles due to pending quiesce instructions (Cycle)
system.cpu.fetch.icacheWaitRetryStallCycles          648                       # Number of stall cycles due to full MSHR (Cycle)
system.cpu.fetch.cacheLines                   6335468                       # Number of cache lines fetched (Count)
system.cpu.fetch.icacheSquashes                 27301                       # Number of outstanding Icache misses that were squashed (Count)
system.cpu.fetch.nisnDist::samples           26343911                       # Number of instructions fetched each cycle (Total) (Count)
system.cpu.fetch.nisnDist::mean              3.271144                       # Number of instructions fetched each cycle (Total) (Count)
system.cpu.fetch.nisnDist::stdev             3.507875                       # Number of instructions fetched each cycle (Total) (Count)
system.cpu.fetch.nisnDist::underflows               0      0.00%      0.00% # Number of instructions fetched each cycle (Total) (Count)
system.cpu.fetch.nisnDist::0                 12204007     46.33%     46.33% # Number of instructions fetched each cycle (Total) (Count)
system.cpu.fetch.nisnDist::1                   808009      3.07%     49.39% # Number of instructions fetched each cycle (Total) (Count)
system.cpu.fetch.nisnDist::2                   882712      3.35%     52.74% # Number of instructions fetched each cycle (Total) (Count)
system.cpu.fetch.nisnDist::3                   917655      3.48%     56.23% # Number of instructions fetched each cycle (Total) (Count)
system.cpu.fetch.nisnDist::4                  1544487      5.86%     62.09% # Number of instructions fetched each cycle (Total) (Count)
system.cpu.fetch.nisnDist::5                  1139502      4.33%     66.42% # Number of instructions fetched each cycle (Total) (Count)
system.cpu.fetch.nisnDist::6                   564441      2.14%     68.56% # Number of instructions fetched each cycle (Total) (Count)
system.cpu.fetch.nisnDist::7                   678572      2.58%     71.13% # Number of instructions fetched each cycle (Total) (Count)
system.cpu.fetch.nisnDist::8                  7604526     28.87%    100.00% # Number of instructions fetched each cycle (Total) (Count)
system.cpu.fetch.nisnDist::overflows                0      0.00%    100.00% # Number of instructions fetched each cycle (Total) (Count)
system.cpu.fetch.nisnDist::min_value                0                       # Number of instructions fetched each cycle (Total) (Count)
system.cpu.fetch.nisnDist::max_value                8                       # Number of instructions fetched each cycle (Total) (Count)
system.cpu.fetch.nisnDist::total             26343911                       # Number of instructions fetched each cycle (Total) (Count)
system.cpu.fetch.branchRate                  0.350565                       # Number of branch fetches per cycle (Ratio)
system.cpu.fetch.rate                        1.643768                       # Number of inst fetches per cycle ((Count/Cycle))
system.cpu.icache.demandHits::cpu.inst        6276854                       # number of demand (read+write) hits (Count)
system.cpu.icache.demandHits::total           6276854                       # number of demand (read+write) hits (Count)
system.cpu.icache.overallHits::cpu.inst       6276854                       # number of overall hits (Count)
system.cpu.icache.overallHits::total          6276854                       # number of overall hits (Count)
system.cpu.icache.demandMisses::cpu.inst        58614                       # number of demand (read+write) misses (Count)
system.cpu.icache.demandMisses::total           58614                       # number of demand (read+write) misses (Count)
system.cpu.icache.overallMisses::cpu.inst        58614                       # number of overall misses (Count)
system.cpu.icache.overallMisses::total          58614                       # number of overall misses (Count)
system.cpu.icache.demandMissLatency::cpu.inst   1331914998                       # number of demand (read+write) miss ticks (Tick)
system.cpu.icache.demandMissLatency::total   1331914998                       # number of demand (read+write) miss ticks (Tick)
system.cpu.icache.overallMissLatency::cpu.inst   1331914998                       # number of overall miss ticks (Tick)
system.cpu.icache.overallMissLatency::total   1331914998                       # number of overall miss ticks (Tick)
system.cpu.icache.demandAccesses::cpu.inst      6335468                       # number of demand (read+write) accesses (Count)
system.cpu.icache.demandAccesses::total       6335468                       # number of demand (read+write) accesses (Count)
system.cpu.icache.overallAccesses::cpu.inst      6335468                       # number of overall (read+write) accesses (Count)
system.cpu.icache.overallAccesses::total      6335468                       # number of overall (read+write) accesses (Count)
system.cpu.icache.demandMissRate::cpu.inst     0.009252                       # miss rate for demand accesses (Ratio)
system.cpu.icache.demandMissRate::total      0.009252                       # miss rate for demand accesses (Ratio)
system.cpu.icache.overallMissRate::cpu.inst     0.009252                       # miss rate for overall accesses (Ratio)
system.cpu.icache.overallMissRate::total     0.009252                       # miss rate for overall accesses (Ratio)
system.cpu.icache.demandAvgMissLatency::cpu.inst 22723.496059                       # average overall miss latency ((Cycle/Count))
system.cpu.icache.demandAvgMissLatency::total 22723.496059                       # average overall miss latency ((Cycle/Count))
system.cpu.icache.overallAvgMissLatency::cpu.inst 22723.496059                       # average overall miss latency ((Cycle/Count))
system.cpu.icache.overallAvgMissLatency::total 22723.496059                       # average overall miss latency ((Cycle/Count))
system.cpu.icache.blockedCycles::no_mshrs         1058                       # number of cycles access was blocked (Cycle)
system.cpu.icache.blockedCycles::no_targets            0                       # number of cycles access was blocked (Cycle)
system.cpu.icache.blockedCauses::no_mshrs            8                       # number of times access was blocked (Count)
system.cpu.icache.blockedCauses::no_targets            0                       # number of times access was blocked (Count)
system.cpu.icache.avgBlocked::no_mshrs     132.250000                       # average number of cycles each access was blocked ((Cycle/Count))
system.cpu.icache.avgBlocked::no_targets          nan                       # average number of cycles each access was blocked ((Cycle/Count))
system.cpu.icache.writebacks::writebacks        53832                       # number of writebacks (Count)
system.cpu.icache.writebacks::total             53832                       # number of writebacks (Count)
system.cpu.icache.demandMshrHits::cpu.inst         4283                       # number of demand (read+write) MSHR hits (Count)
system.cpu.icache.demandMshrHits::total          4283                       # number of demand (read+write) MSHR hits (Count)
system.cpu.icache.overallMshrHits::cpu.inst         4283                       # number of overall MSHR hits (Count)
system.cpu.icache.overallMshrHits::total         4283                       # number of overall MSHR hits (Count)
system.cpu.icache.demandMshrMisses::cpu.inst        54331                       # number of demand (read+write) MSHR misses (Count)
system.cpu.icache.demandMshrMisses::total        54331                       # number of demand (read+write) MSHR misses (Count)
system.cpu.icache.overallMshrMisses::cpu.inst        54331                       # number of overall MSHR misses (Count)
system.cpu.icache.overallMshrMisses::total        54331                       # number of overall MSHR misses (Count)
system.cpu.icache.demandMshrMissLatency::cpu.inst   1234475498                       # number of demand (read+write) MSHR miss ticks (Tick)
system.cpu.icache.demandMshrMissLatency::total   1234475498                       # number of demand (read+write) MSHR miss ticks (Tick)
system.cpu.icache.overallMshrMissLatency::cpu.inst   1234475498                       # number of overall MSHR miss ticks (Tick)
system.cpu.icache.overallMshrMissLatency::total   1234475498                       # number of overall MSHR miss ticks (Tick)
system.cpu.icache.demandMshrMissRate::cpu.inst     0.008576                       # mshr miss ratio for demand accesses (Ratio)
system.cpu.icache.demandMshrMissRate::total     0.008576                       # mshr miss ratio for demand accesses (Ratio)
system.cpu.icache.overallMshrMissRate::cpu.inst     0.008576                       # mshr miss ratio for overall accesses (Ratio)
system.cpu.icache.overallMshrMissRate::total     0.008576                       # mshr miss ratio for overall accesses (Ratio)
system.cpu.icache.demandAvgMshrMissLatency::cpu.inst 22721.383704                       # average overall mshr miss latency ((Cycle/Count))
system.cpu.icache.demandAvgMshrMissLatency::total 22721.383704                       # average overall mshr miss latency ((Cycle/Count))
system.cpu.icache.overallAvgMshrMissLatency::cpu.inst 22721.383704                       # average overall mshr miss latency ((Cycle/Count))
system.cpu.icache.overallAvgMshrMissLatency::total 22721.383704                       # average overall mshr miss latency ((Cycle/Count))
system.cpu.icache.replacements                  53832                       # number of replacements (Count)
system.cpu.icache.ReadReq.hits::cpu.inst      6276854                       # number of ReadReq hits (Count)
system.cpu.icache.ReadReq.hits::total         6276854                       # number of ReadReq hits (Count)
system.cpu.icache.ReadReq.misses::cpu.inst        58614                       # number of ReadReq misses (Count)
system.cpu.icache.ReadReq.misses::total         58614                       # number of ReadReq misses (Count)
system.cpu.icache.ReadReq.missLatency::cpu.inst   1331914998                       # number of ReadReq miss ticks (Tick)
system.cpu.icache.ReadReq.missLatency::total   1331914998                       # number of ReadReq miss ticks (Tick)
system.cpu.icache.ReadReq.accesses::cpu.inst      6335468                       # number of ReadReq accesses(hits+misses) (Count)
system.cpu.icache.ReadReq.accesses::total      6335468                       # number of ReadReq accesses(hits+misses) (Count)
system.cpu.icache.ReadReq.missRate::cpu.inst     0.009252                       # miss rate for ReadReq accesses (Ratio)
system.cpu.icache.ReadReq.missRate::total     0.009252                       # miss rate for ReadReq accesses (Ratio)
system.cpu.icache.ReadReq.avgMissLatency::cpu.inst 22723.496059                       # average ReadReq miss latency ((Tick/Count))
system.cpu.icache.ReadReq.avgMissLatency::total 22723.496059                       # average ReadReq miss latency ((Tick/Count))
system.cpu.icache.ReadReq.mshrHits::cpu.inst         4283                       # number of ReadReq MSHR hits (Count)
system.cpu.icache.ReadReq.mshrHits::total         4283                       # number of ReadReq MSHR hits (Count)
system.cpu.icache.ReadReq.mshrMisses::cpu.inst        54331                       # number of ReadReq MSHR misses (Count)
system.cpu.icache.ReadReq.mshrMisses::total        54331                       # number of ReadReq MSHR misses (Count)
system.cpu.icache.ReadReq.mshrMissLatency::cpu.inst   1234475498                       # number of ReadReq MSHR miss ticks (Tick)
system.cpu.icache.ReadReq.mshrMissLatency::total   1234475498                       # number of ReadReq MSHR miss ticks (Tick)
system.cpu.icache.ReadReq.mshrMissRate::cpu.inst     0.008576                       # mshr miss rate for ReadReq accesses (Ratio)
system.cpu.icache.ReadReq.mshrMissRate::total     0.008576                       # mshr miss rate for ReadReq accesses (Ratio)
system.cpu.icache.ReadReq.avgMshrMissLatency::cpu.inst 22721.383704                       # average ReadReq mshr miss latency ((Tick/Count))
system.cpu.icache.ReadReq.avgMshrMissLatency::total 22721.383704                       # average ReadReq mshr miss latency ((Tick/Count))
system.cpu.icache.power_state.pwrStateResidencyTicks::UNDEFINED  13526600500                       # Cumulative time (in ticks) in various power states (Tick)
system.cpu.icache.tags.tagsInUse           459.119773                       # Average ticks per tags in use ((Tick/Count))
system.cpu.icache.tags.totalRefs              6331185                       # Total number of references to valid blocks. (Count)
system.cpu.icache.tags.sampledRefs              54331                       # Sample count of references to valid blocks. (Count)
system.cpu.icache.tags.avgRefs             116.529882                       # Average number of references to valid blocks. ((Count/Count))
system.cpu.icache.tags.warmupTick               77000                       # The tick when the warmup percentage was hit. (Tick)
system.cpu.icache.tags.occupancies::cpu.inst   459.119773                       # Average occupied blocks per tick, per requestor ((Count/Tick))
system.cpu.icache.tags.avgOccs::cpu.inst     0.896718                       # Average percentage of cache occupancy ((Ratio/Tick))
system.cpu.icache.tags.avgOccs::total        0.896718                       # Average percentage of cache occupancy ((Ratio/Tick))
system.cpu.icache.tags.occupanciesTaskId::1024          499                       # Occupied blocks per task id (Count)
system.cpu.icache.tags.ageTaskId_1024::0          117                       # Occupied blocks per task id, per block age (Count)
system.cpu.icache.tags.ageTaskId_1024::2           24                       # Occupied blocks per task id, per block age (Count)
system.cpu.icache.tags.ageTaskId_1024::3          190                       # Occupied blocks per task id, per block age (Count)
system.cpu.icache.tags.ageTaskId_1024::4          168                       # Occupied blocks per task id, per block age (Count)
system.cpu.icache.tags.ratioOccsTaskId::1024     0.974609                       # Ratio of occupied blocks and all blocks, per task id (Ratio)
system.cpu.icache.tags.tagAccesses           12725267                       # Number of tag accesses (Count)
system.cpu.icache.tags.dataAccesses          12725267                       # Number of data accesses (Count)
system.cpu.icache.tags.power_state.pwrStateResidencyTicks::UNDEFINED  13526600500                       # Cumulative time (in ticks) in various power states (Tick)
system.cpu.iew.idleCycles                           0                       # Number of cycles IEW is idle (Cycle)
system.cpu.iew.squashCycles                    149047                       # Number of cycles IEW is squashing (Cycle)
system.cpu.iew.blockCycles                     821665                       # Number of cycles IEW is blocking (Cycle)
system.cpu.iew.unblockCycles                   237284                       # Number of cycles IEW is unblocking (Cycle)
system.cpu.iew.dispatchedInsts               82642201                       # Number of instructions dispatched to IQ (Count)
system.cpu.iew.dispSquashedInsts                29638                       # Number of squashed instructions skipped by dispatch (Count)
system.cpu.iew.dispLoadInsts                 11571037                       # Number of dispatched load instructions (Count)
system.cpu.iew.dispStoreInsts                 6395508                       # Number of dispatched store instructions (Count)
system.cpu.iew.dispNonSpecInsts                    20                       # Number of dispatched non-speculative instructions (Count)
system.cpu.iew.iqFullEvents                      3594                       # Number of times the IQ has become full, causing a stall (Count)
system.cpu.iew.lsqFullEvents                   232900                       # Number of times the LSQ has become full, causing a stall (Count)
system.cpu.iew.memOrderViolationEvents           1024                       # Number of memory order violations (Count)
system.cpu.iew.predictedTakenIncorrect          76025                       # Number of branches that were predicted taken incorrectly (Count)
system.cpu.iew.predictedNotTakenIncorrect        90376                       # Number of branches that were predicted not taken incorrectly (Count)
system.cpu.iew.branchMispredicts               166401                       # Number of branch mispredicts detected at execute (Count)
system.cpu.iew.instsToCommit                 80593649                       # Cumulative count of insts sent to commit (Count)
system.cpu.iew.writebackCount                80558275                       # Cumulative count of insts written-back (Count)
system.cpu.iew.producerInst                  57016436                       # Number of instructions producing a value (Count)
system.cpu.iew.consumerInst                  96103801                       # Number of instructions consuming a value (Count)
system.cpu.iew.wbRate                        2.977772                       # Insts written-back per cycle ((Count/Cycle))
system.cpu.iew.wbFanout                      0.593280                       # Average fanout of values written-back ((Count/Count))
system.cpu.interrupts.clk_domain.clock           8000                       # Clock period in ticks (Tick)
system.cpu.itb_walker_cache.blockedCycles::no_mshrs            0                       # number of cycles access was blocked (Cycle)
system.cpu.itb_walker_cache.blockedCycles::no_targets            0                       # number of cycles access was blocked (Cycle)
system.cpu.itb_walker_cache.blockedCauses::no_mshrs            0                       # number of times access was blocked (Count)
system.cpu.itb_walker_cache.blockedCauses::no_targets            0                       # number of times access was blocked (Count)
system.cpu.itb_walker_cache.avgBlocked::no_mshrs          nan                       # average number of cycles each access was blocked ((Cycle/Count))
system.cpu.itb_walker_cache.avgBlocked::no_targets          nan                       # average number of cycles each access was blocked ((Cycle/Count))
system.cpu.itb_walker_cache.replacements            0                       # number of replacements (Count)
system.cpu.itb_walker_cache.power_state.pwrStateResidencyTicks::UNDEFINED  13526600500                       # Cumulative time (in ticks) in various power states (Tick)
system.cpu.itb_walker_cache.tags.tagsInUse            0                       # Average ticks per tags in use ((Tick/Count))
system.cpu.itb_walker_cache.tags.totalRefs            0                       # Total number of references to valid blocks. (Count)
system.cpu.itb_walker_cache.tags.sampledRefs            0                       # Sample count of references to valid blocks. (Count)
system.cpu.itb_walker_cache.tags.avgRefs          nan                       # Average number of references to valid blocks. ((Count/Count))
system.cpu.itb_walker_cache.tags.warmupTick            0                       # The tick when the warmup percentage was hit. (Tick)
system.cpu.itb_walker_cache.tags.tagAccesses            0                       # Number of tag accesses (Count)
system.cpu.itb_walker_cache.tags.dataAccesses            0                       # Number of data accesses (Count)
system.cpu.itb_walker_cache.tags.power_state.pwrStateResidencyTicks::UNDEFINED  13526600500                       # Cumulative time (in ticks) in various power states (Tick)
system.cpu.lsq0.forwLoads                     3109679                       # Number of loads that had data forwarded from stores (Count)
system.cpu.lsq0.squashedLoads                  453161                       # Number of loads squashed (Count)
system.cpu.lsq0.ignoredResponses                  107                       # Number of memory responses ignored because the instruction is squashed (Count)
system.cpu.lsq0.memOrderViolation                1024                       # Number of memory ordering violations (Count)
system.cpu.lsq0.squashedStores                 332484                       # Number of stores squashed (Count)
system.cpu.lsq0.rescheduledLoads                    1                       # Number of loads that were rescheduled (Count)
system.cpu.lsq0.blockedByCache                     50                       # Number of times an access to memory failed due to the cache being blocked (Count)
system.cpu.lsq0.loadToUse::samples           11117876                       # Distribution of cycle latency between the first time a load is issued and its completion (Unspecified)
system.cpu.lsq0.loadToUse::mean              3.431221                       # Distribution of cycle latency between the first time a load is issued and its completion (Unspecified)
system.cpu.lsq0.loadToUse::stdev             8.909032                       # Distribution of cycle latency between the first time a load is issued and its completion (Unspecified)
system.cpu.lsq0.loadToUse::0-9               11067804     99.55%     99.55% # Distribution of cycle latency between the first time a load is issued and its completion (Unspecified)
system.cpu.lsq0.loadToUse::10-19                  232      0.00%     99.55% # Distribution of cycle latency between the first time a load is issued and its completion (Unspecified)
system.cpu.lsq0.loadToUse::20-29                   61      0.00%     99.55% # Distribution of cycle latency between the first time a load is issued and its completion (Unspecified)
system.cpu.lsq0.loadToUse::30-39                   76      0.00%     99.55% # Distribution of cycle latency between the first time a load is issued and its completion (Unspecified)
system.cpu.lsq0.loadToUse::40-49                  512      0.00%     99.56% # Distribution of cycle latency between the first time a load is issued and its completion (Unspecified)
system.cpu.lsq0.loadToUse::50-59                   69      0.00%     99.56% # Distribution of cycle latency between the first time a load is issued and its completion (Unspecified)
system.cpu.lsq0.loadToUse::60-69                   10      0.00%     99.56% # Distribution of cycle latency between the first time a load is issued and its completion (Unspecified)
system.cpu.lsq0.loadToUse::70-79                    9      0.00%     99.56% # Distribution of cycle latency between the first time a load is issued and its completion (Unspecified)
[...]
system.mem_ctrls.dram.bwWrite::total         53010806                       # Write bandwidth from this memory ((Byte/Second))
system.mem_ctrls.dram.bwTotal::writebacks     53010806                       # Total bandwidth to/from this memory ((Byte/Second))
system.mem_ctrls.dram.bwTotal::cpu.inst     257062667                       # Total bandwidth to/from this memory ((Byte/Second))
system.mem_ctrls.dram.bwTotal::cpu.data     153534511                       # Total bandwidth to/from this memory ((Byte/Second))
system.mem_ctrls.dram.bwTotal::total        463607985                       # Total bandwidth to/from this memory ((Byte/Second))
system.mem_ctrls.dram.readBursts                29489                       # Number of DRAM read bursts (Count)
system.mem_ctrls.dram.writeBursts                8382                       # Number of DRAM write bursts (Count)
system.mem_ctrls.dram.perBankRdBursts::0         2089                       # Per bank write bursts (Count)
system.mem_ctrls.dram.perBankRdBursts::1         3363                       # Per bank write bursts (Count)
system.mem_ctrls.dram.perBankRdBursts::2         4400                       # Per bank write bursts (Count)
system.mem_ctrls.dram.perBankRdBursts::3         3291                       # Per bank write bursts (Count)
system.mem_ctrls.dram.perBankRdBursts::4         3615                       # Per bank write bursts (Count)
system.mem_ctrls.dram.perBankRdBursts::5          798                       # Per bank write bursts (Count)
system.mem_ctrls.dram.perBankRdBursts::6          916                       # Per bank write bursts (Count)
system.mem_ctrls.dram.perBankRdBursts::7         1018                       # Per bank write bursts (Count)
system.mem_ctrls.dram.perBankRdBursts::8         1449                       # Per bank write bursts (Count)
system.mem_ctrls.dram.perBankRdBursts::9          753                       # Per bank write bursts (Count)
system.mem_ctrls.dram.perBankRdBursts::10          643                       # Per bank write bursts (Count)
system.mem_ctrls.dram.perBankRdBursts::11          565                       # Per bank write bursts (Count)
system.mem_ctrls.dram.perBankRdBursts::12          909                       # Per bank write bursts (Count)
system.mem_ctrls.dram.perBankRdBursts::13         1918                       # Per bank write bursts (Count)
system.mem_ctrls.dram.perBankRdBursts::14         1877                       # Per bank write bursts (Count)
system.mem_ctrls.dram.perBankRdBursts::15         1885                       # Per bank write bursts (Count)
system.mem_ctrls.dram.perBankWrBursts::0          545                       # Per bank write bursts (Count)
system.mem_ctrls.dram.perBankWrBursts::1          561                       # Per bank write bursts (Count)
system.mem_ctrls.dram.perBankWrBursts::2          547                       # Per bank write bursts (Count)
system.mem_ctrls.dram.perBankWrBursts::3          573                       # Per bank write bursts (Count)
system.mem_ctrls.dram.perBankWrBursts::4          547                       # Per bank write bursts (Count)
system.mem_ctrls.dram.perBankWrBursts::5          543                       # Per bank write bursts (Count)
system.mem_ctrls.dram.perBankWrBursts::6          515                       # Per bank write bursts (Count)
system.mem_ctrls.dram.perBankWrBursts::7          597                       # Per bank write bursts (Count)
system.mem_ctrls.dram.perBankWrBursts::8          560                       # Per bank write bursts (Count)
system.mem_ctrls.dram.perBankWrBursts::9          535                       # Per bank write bursts (Count)
system.mem_ctrls.dram.perBankWrBursts::10          436                       # Per bank write bursts (Count)
system.mem_ctrls.dram.perBankWrBursts::11          332                       # Per bank write bursts (Count)
system.mem_ctrls.dram.perBankWrBursts::12          458                       # Per bank write bursts (Count)
system.mem_ctrls.dram.perBankWrBursts::13          560                       # Per bank write bursts (Count)
system.mem_ctrls.dram.perBankWrBursts::14          535                       # Per bank write bursts (Count)
system.mem_ctrls.dram.perBankWrBursts::15          538                       # Per bank write bursts (Count)
system.mem_ctrls.dram.totQLat               253846500                       # Total ticks spent queuing (Tick)
system.mem_ctrls.dram.totBusLat             147445000                       # Total ticks spent in databus transfers (Tick)
system.mem_ctrls.dram.totMemAccLat          806765250                       # Total ticks spent from burst creation until serviced by the DRAM (Tick)
system.mem_ctrls.dram.avgQLat                 8608.18                       # Average queueing delay per DRAM burst ((Tick/Count))
system.mem_ctrls.dram.avgBusLat               5000.00                       # Average bus latency per DRAM burst ((Tick/Count))
system.mem_ctrls.dram.avgMemAccLat           27358.18                       # Average memory access latency per DRAM burst ((Tick/Count))
system.mem_ctrls.dram.readRowHits               24098                       # Number of row buffer hits during reads (Count)
system.mem_ctrls.dram.writeRowHits               7226                       # Number of row buffer hits during writes (Count)
system.mem_ctrls.dram.readRowHitRate            81.72                       # Row buffer hit rate for reads (Ratio)
system.mem_ctrls.dram.writeRowHitRate           86.21                       # Row buffer hit rate for writes (Ratio)
system.mem_ctrls.dram.bytesPerActivate::samples         6541                       # Bytes accessed per row activation (Byte)
system.mem_ctrls.dram.bytesPerActivate::mean   370.360495                       # Bytes accessed per row activation (Byte)
system.mem_ctrls.dram.bytesPerActivate::gmean   218.758154                       # Bytes accessed per row activation (Byte)
system.mem_ctrls.dram.bytesPerActivate::stdev   360.534765                       # Bytes accessed per row activation (Byte)
system.mem_ctrls.dram.bytesPerActivate::0-127         1974     30.18%     30.18% # Bytes accessed per row activation (Byte)
system.mem_ctrls.dram.bytesPerActivate::128-255         1533     23.44%     53.62% # Bytes accessed per row activation (Byte)
system.mem_ctrls.dram.bytesPerActivate::256-383          659     10.07%     63.69% # Bytes accessed per row activation (Byte)
system.mem_ctrls.dram.bytesPerActivate::384-511          540      8.26%     71.95% # Bytes accessed per row activation (Byte)
system.mem_ctrls.dram.bytesPerActivate::512-639          208      3.18%     75.13% # Bytes accessed per row activation (Byte)
system.mem_ctrls.dram.bytesPerActivate::640-767          173      2.64%     77.77% # Bytes accessed per row activation (Byte)
system.mem_ctrls.dram.bytesPerActivate::768-895          164      2.51%     80.28% # Bytes accessed per row activation (Byte)
system.mem_ctrls.dram.bytesPerActivate::896-1023          221      3.38%     83.66% # Bytes accessed per row activation (Byte)
system.mem_ctrls.dram.bytesPerActivate::1024-1151         1069     16.34%    100.00% # Bytes accessed per row activation (Byte)
system.mem_ctrls.dram.bytesPerActivate::total         6541                       # Bytes accessed per row activation (Byte)
system.mem_ctrls.dram.bytesRead               1887296                       # Total bytes read (Byte)
system.mem_ctrls.dram.bytesWritten             536448                       # Total bytes written (Byte)
system.mem_ctrls.dram.avgRdBW              139.524783                       # Average DRAM read bandwidth in MiBytes/s ((Byte/Second))
system.mem_ctrls.dram.avgWrBW               39.658745                       # Average DRAM write bandwidth in MiBytes/s ((Byte/Second))
system.mem_ctrls.dram.peakBW                 12800.00                       # Theoretical peak bandwidth in MiByte/s ((Byte/Second))
system.mem_ctrls.dram.busUtil                    1.40                       # Data bus utilization in percentage (Ratio)
system.mem_ctrls.dram.busUtilRead                1.09                       # Data bus utilization in percentage for reads (Ratio)
system.mem_ctrls.dram.busUtilWrite               0.31                       # Data bus utilization in percentage for writes (Ratio)
system.mem_ctrls.dram.pageHitRate               82.71                       # Row buffer hit rate, read and write combined (Ratio)
system.mem_ctrls.dram.power_state.pwrStateResidencyTicks::UNDEFINED  13526600500                       # Cumulative time (in ticks) in various power states (Tick)
system.mem_ctrls.dram.rank0.actEnergy        26539380                       # Energy for activate commands per rank (pJ) (Joule)
system.mem_ctrls.dram.rank0.preEnergy        14090835                       # Energy for precharge commands per rank (pJ) (Joule)
system.mem_ctrls.dram.rank0.readEnergy      139158600                       # Energy for read commands per rank (pJ) (Joule)
system.mem_ctrls.dram.rank0.writeEnergy      23114160                       # Energy for write commands per rank (pJ) (Joule)
system.mem_ctrls.dram.rank0.refreshEnergy 1067629680.000000                       # Energy for refresh commands per rank (pJ) (Joule)
system.mem_ctrls.dram.rank0.actBackEnergy   3624094200                       # Energy for active background per rank (pJ) (Joule)
system.mem_ctrls.dram.rank0.preBackEnergy   2142346080                       # Energy for precharge background per rank (pJ) (Joule)
system.mem_ctrls.dram.rank0.actPowerDownEnergy            0                       # Energy for active power-down per rank (pJ) (Joule)
system.mem_ctrls.dram.rank0.prePowerDownEnergy            0                       # Energy for precharge power-down per rank (pJ) (Joule)
system.mem_ctrls.dram.rank0.selfRefreshEnergy            0                       # Energy for self refresh per rank (pJ) (Joule)
system.mem_ctrls.dram.rank0.totalEnergy    7036972935                       # Total energy per rank (pJ) (Joule)
system.mem_ctrls.dram.rank0.averagePower   520.232185                       # Core power per rank (mW) (Watt)
system.mem_ctrls.dram.rank0.totalIdleTime            0                       # Total Idle time Per DRAM Rank (Tick)
system.mem_ctrls.dram.rank0.pwrStateTime::IDLE   5534517500                       # Time in different power states (Tick)
system.mem_ctrls.dram.rank0.pwrStateTime::REF    451620000                       # Time in different power states (Tick)
system.mem_ctrls.dram.rank0.pwrStateTime::SREF            0                       # Time in different power states (Tick)
system.mem_ctrls.dram.rank0.pwrStateTime::PRE_PDN            0                       # Time in different power states (Tick)
system.mem_ctrls.dram.rank0.pwrStateTime::ACT   7540463000                       # Time in different power states (Tick)
system.mem_ctrls.dram.rank0.pwrStateTime::ACT_PDN            0                       # Time in different power states (Tick)
system.mem_ctrls.dram.rank1.actEnergy        20206200                       # Energy for activate commands per rank (pJ) (Joule)
system.mem_ctrls.dram.rank1.preEnergy        10732260                       # Energy for precharge commands per rank (pJ) (Joule)
system.mem_ctrls.dram.rank1.readEnergy       71392860                       # Energy for read commands per rank (pJ) (Joule)
system.mem_ctrls.dram.rank1.writeEnergy      20639880                       # Energy for write commands per rank (pJ) (Joule)
system.mem_ctrls.dram.rank1.refreshEnergy 1067629680.000000                       # Energy for refresh commands per rank (pJ) (Joule)
system.mem_ctrls.dram.rank1.actBackEnergy   3134437980                       # Energy for active background per rank (pJ) (Joule)
system.mem_ctrls.dram.rank1.preBackEnergy   2554688160                       # Energy for precharge background per rank (pJ) (Joule)
system.mem_ctrls.dram.rank1.actPowerDownEnergy            0                       # Energy for active power-down per rank (pJ) (Joule)
system.mem_ctrls.dram.rank1.prePowerDownEnergy            0                       # Energy for precharge power-down per rank (pJ) (Joule)
system.mem_ctrls.dram.rank1.selfRefreshEnergy            0                       # Energy for self refresh per rank (pJ) (Joule)
system.mem_ctrls.dram.rank1.totalEnergy    6879727020                       # Total energy per rank (pJ) (Joule)
system.mem_ctrls.dram.rank1.averagePower   508.607245                       # Core power per rank (mW) (Watt)
system.mem_ctrls.dram.rank1.totalIdleTime            0                       # Total Idle time Per DRAM Rank (Tick)
system.mem_ctrls.dram.rank1.pwrStateTime::IDLE   6608607500                       # Time in different power states (Tick)
system.mem_ctrls.dram.rank1.pwrStateTime::REF    451620000                       # Time in different power states (Tick)
system.mem_ctrls.dram.rank1.pwrStateTime::SREF            0                       # Time in different power states (Tick)
system.mem_ctrls.dram.rank1.pwrStateTime::PRE_PDN            0                       # Time in different power states (Tick)
system.mem_ctrls.dram.rank1.pwrStateTime::ACT   6466373000                       # Time in different power states (Tick)
system.mem_ctrls.dram.rank1.pwrStateTime::ACT_PDN            0                       # Time in different power states (Tick)
system.mem_ctrls.power_state.pwrStateResidencyTicks::UNDEFINED  13526600500                       # Cumulative time (in ticks) in various power states (Tick)
system.membus.transDist::ReadResp               79354                       # Transaction distribution (Count)
system.membus.transDist::WritebackDirty         11204                       # Transaction distribution (Count)
system.membus.transDist::WritebackClean         53832                       # Transaction distribution (Count)
system.membus.transDist::CleanEvict             20734                       # Transaction distribution (Count)
system.membus.transDist::ReadExReq               7427                       # Transaction distribution (Count)
system.membus.transDist::ReadExResp              7427                       # Transaction distribution (Count)
system.membus.transDist::ReadCleanReq           54331                       # Transaction distribution (Count)
system.membus.transDist::ReadSharedReq          25023                       # Transaction distribution (Count)
system.membus.pktCount_system.cpu.icache.mem_side_port::system.mem_ctrls.port       162494                       # Packet count per connected requestor and responder (Count)
system.membus.pktCount_system.cpu.icache.mem_side_port::total       162494                       # Packet count per connected requestor and responder (Count)
system.membus.pktCount_system.cpu.dcache.mem_side_port::system.mem_ctrls.port        96838                       # Packet count per connected requestor and responder (Count)
system.membus.pktCount_system.cpu.dcache.mem_side_port::total        96838                       # Packet count per connected requestor and responder (Count)
system.membus.pktCount::total                  259332                       # Packet count per connected requestor and responder (Count)
system.membus.pktSize_system.cpu.icache.mem_side_port::system.mem_ctrls.port      6922432                       # Cumulative packet size per connected requestor and responder (Byte)
system.membus.pktSize_system.cpu.icache.mem_side_port::total      6922432                       # Cumulative packet size per connected requestor and responder (Byte)
system.membus.pktSize_system.cpu.dcache.mem_side_port::system.mem_ctrls.port      2793856                       # Cumulative packet size per connected requestor and responder (Byte)
system.membus.pktSize_system.cpu.dcache.mem_side_port::total      2793856                       # Cumulative packet size per connected requestor and responder (Byte)
system.membus.pktSize::total                  9716288                       # Cumulative packet size per connected requestor and responder (Byte)
system.membus.snoops                                0                       # Total snoops (Count)
system.membus.snoopTraffic                          0                       # Total snoop traffic (Byte)
system.membus.snoopFanout::samples              86781                       # Request fanout histogram (Count)
system.membus.snoopFanout::mean              0.000046                       # Request fanout histogram (Count)
system.membus.snoopFanout::stdev             0.006789                       # Request fanout histogram (Count)
system.membus.snoopFanout::underflows               0      0.00%      0.00% # Request fanout histogram (Count)
system.membus.snoopFanout::0                    86777    100.00%    100.00% # Request fanout histogram (Count)
system.membus.snoopFanout::1                        4      0.00%    100.00% # Request fanout histogram (Count)
system.membus.snoopFanout::2                        0      0.00%    100.00% # Request fanout histogram (Count)
system.membus.snoopFanout::3                        0      0.00%    100.00% # Request fanout histogram (Count)
system.membus.snoopFanout::4                        0      0.00%    100.00% # Request fanout histogram (Count)
system.membus.snoopFanout::overflows                0      0.00%    100.00% # Request fanout histogram (Count)
system.membus.snoopFanout::min_value                0                       # Request fanout histogram (Count)
system.membus.snoopFanout::max_value                1                       # Request fanout histogram (Count)
system.membus.snoopFanout::total                86781                       # Request fanout histogram (Count)
system.membus.power_state.pwrStateResidencyTicks::UNDEFINED  13526600500                       # Cumulative time (in ticks) in various power states (Tick)
system.membus.reqLayer2.occupancy           450245000                       # Layer occupancy (ticks) (Tick)
system.membus.reqLayer2.utilization               0.0                       # Layer utilization (Ratio)
system.membus.respLayer1.occupancy          272041750                       # Layer occupancy (ticks) (Tick)
system.membus.respLayer1.utilization              0.0                       # Layer utilization (Ratio)
system.membus.respLayer2.occupancy          170306000                       # Layer occupancy (ticks) (Tick)
system.membus.respLayer2.utilization              0.0                       # Layer utilization (Ratio)
system.membus.snoop_filter.totRequests         172551                       # Total number of requests made to the snoop filter. (Count)
system.membus.snoop_filter.hitSingleRequests        85770                       # Number of requests hitting in the snoop filter with a single holder of the requested data. (Count)
system.membus.snoop_filter.hitMultiRequests            4                       # Number of requests hitting in the snoop filter with multiple (>1) holders of the requested data. (Count)
system.membus.snoop_filter.totSnoops                0                       # Total number of snoops made to the snoop filter. (Count)
system.membus.snoop_filter.hitSingleSnoops            0                       # Number of snoops hitting in the snoop filter with a single holder of the requested data. (Count)
system.membus.snoop_filter.hitMultiSnoops            0                       # Number of snoops hitting in the snoop filter with multiple (>1) holders of the requested data. (Count)
system.voltage_domain.voltage                       1                       # Voltage in Volts (Volt)
system.workload.inst.arm                            0                       # number of arm instructions executed (Count)
system.workload.inst.quiesce                        0                       # number of quiesce instructions executed (Count)

---------- End Simulation Statistics   ----------
