
---------- Begin Simulation Statistics ----------
simSeconds                                   0.017448                       # Number of seconds simulated (Second)
simTicks                                  17447629500                       # Number of ticks simulated (Tick)
finalTick                                 17447629500                       # Number of ticks from beginning of simulation (restored from checkpoints and never reset) (Tick)
simFreq                                  1000000000000                       # The number of ticks per simulated second ((Tick/Second))
hostSeconds                                     87.40                       # Real time elapsed on the host (Second)
hostTickRate                                199640486                       # The number of ticks simulated per host second (ticks/s) ((Tick/Second))
hostMemory                                     664880                       # Number of bytes of host memory used (Byte)
simInsts                                     41289468                       # Number of instructions simulated (Count)
simOps                                       78315814                       # Number of ops (including micro ops) simulated (Count)
hostInstRate                                   472445                       # Simulator instruction rate (inst/s) ((Count/Second))
hostOpRate                                     896110                       # Simulator op (including micro ops) rate (op/s) ((Count/Second))
system.clk_domain.clock                          1000                       # Clock period in ticks (Tick)
system.cpu.numCycles                         34895260                       # Number of cpu cycles simulated (Cycle)
system.cpu.numWorkItemsStarted                      0                       # Number of work items this cpu started (Count)
system.cpu.numWorkItemsCompleted                    0                       # Number of work items this cpu completed (Count)
system.cpu.instsAdded                        82533368                       # Number of instructions added to the IQ (excludes non-spec) (Count)
system.cpu.nonSpecInstsAdded                       54                       # Number of non-speculative instructions added to the IQ (Count)
system.cpu.instsIssued                       80988507                       # Number of instructions issued (Count)
system.cpu.squashedInstsIssued                  33545                       # Number of squashed instructions issued (Count)
system.cpu.squashedInstsExamined              4217602                       # Number of squashed instructions iterated over during squash; mainly for profiling (Count)
system.cpu.squashedOperandsExamined           6641035                       # Number of squashed operands that are examined and possibly removed from graph (Count)
system.cpu.squashedNonSpecRemoved                  36                       # Number of squashed non-spec instructions that were removed (Count)
system.cpu.numIssuedDist::samples            34152857                       # Number of insts issued each cycle (Count)
system.cpu.numIssuedDist::mean               2.371354                       # Number of insts issued each cycle (Count)
system.cpu.numIssuedDist::stdev              2.321709                       # Number of insts issued each cycle (Count)
system.cpu.numIssuedDist::underflows                0      0.00%      0.00% # Number of insts issued each cycle (Count)
system.cpu.numIssuedDist::0                  11621641     34.03%     34.03% # Number of insts issued each cycle (Count)
system.cpu.numIssuedDist::1                   3423806     10.02%     44.05% # Number of insts issued each cycle (Count)
system.cpu.numIssuedDist::2                   4815398     14.10%     58.15% # Number of insts issued each cycle (Count)
system.cpu.numIssuedDist::3                   3498815     10.24%     68.40% # Number of insts issued each cycle (Count)
system.cpu.numIssuedDist::4                   3595263     10.53%     78.92% # Number of insts issued each cycle (Count)
system.cpu.numIssuedDist::5                   2804253      8.21%     87.14% # Number of insts issued each cycle (Count)
system.cpu.numIssuedDist::6                   2430706      7.12%     94.25% # Number of insts issued each cycle (Count)
system.cpu.numIssuedDist::7                   1252893      3.67%     97.92% # Number of insts issued each cycle (Count)
system.cpu.numIssuedDist::8                    710082      2.08%    100.00% # Number of insts issued each cycle (Count)
system.cpu.numIssuedDist::overflows                 0      0.00%    100.00% # Number of insts issued each cycle (Count)
system.cpu.numIssuedDist::min_value                 0                       # Number of insts issued each cycle (Count)
system.cpu.numIssuedDist::max_value                 8                       # Number of insts issued each cycle (Count)
system.cpu.numIssuedDist::total              34152857                       # Number of insts issued each cycle (Count)
system.cpu.statFuBusy::No_OpClass                   0      0.00%      0.00% # attempts to use FU when none available (Count)
system.cpu.statFuBusy::IntAlu                  906494     77.59%     77.59% # attempts to use FU when none available (Count)
system.cpu.statFuBusy::IntMult                      0      0.00%     77.59% # attempts to use FU when none available (Count)
system.cpu.statFuBusy::IntDiv                       0      0.00%     77.59% # attempts to use FU when none available (Count)
system.cpu.statFuBusy::FloatAdd                     0      0.00%     77.59% # attempts to use FU when none available (Count)
system.cpu.statFuBusy::FloatCmp                     0      0.00%     77.59% # attempts to use FU when none available (Count)
system.cpu.statFuBusy::FloatCvt                     0      0.00%     77.59% # attempts to use FU when none available (Count)
system.cpu.statFuBusy::FloatMult                    0      0.00%     77.59% # attempts to use FU when none available (Count)
system.cpu.statFuBusy::FloatMultAcc                 0      0.00%     77.59% # attempts to use FU when none available (Count)
system.cpu.statFuBusy::FloatDiv                     0      0.00%     77.59% # attempts to use FU when none available (Count)
system.cpu.statFuBusy::FloatMisc                    0      0.00%     77.59% # attempts to use FU when none available (Count)
system.cpu.statFuBusy::FloatSqrt                    0      0.00%     77.59% # attempts to use FU when none available (Count)
system.cpu.statFuBusy::SimdAdd                      0      0.00%     77.59% # attempts to use FU when none available (Count)
system.cpu.statFuBusy::SimdAddAcc                   0      0.00%     77.59% # attempts to use FU when none available (Count)
system.cpu.statFuBusy::SimdAlu                  20163      1.73%     79.31% # attempts to use FU when none available (Count)
system.cpu.statFuBusy::SimdCmp                      0      0.00%     79.31% # attempts to use FU when none available (Count)
system.cpu.statFuBusy::SimdCvt                    127      0.01%     79.33% # attempts to use FU when none available (Count)
system.cpu.statFuBusy::SimdMisc                  8885      0.76%     80.09% # attempts to use FU when none available (Count)
system.cpu.statFuBusy::SimdMult                     0      0.00%     80.09% # attempts to use FU when none available (Count)
system.cpu.statFuBusy::SimdMultAcc                  0      0.00%     80.09% # attempts to use FU when none available (Count)
system.cpu.statFuBusy::SimdShift                    0      0.00%     80.09% # attempts to use FU when none available (Count)
system.cpu.statFuBusy::SimdShiftAcc                 0      0.00%     80.09% # attempts to use FU when none available (Count)
system.cpu.statFuBusy::SimdDiv                      0      0.00%     80.09% # attempts to use FU when none available (Count)
system.cpu.statFuBusy::SimdSqrt                     0      0.00%     80.09% # attempts to use FU when none available (Count)
system.cpu.statFuBusy::SimdFloatAdd                 0      0.00%     80.09% # attempts to use FU when none available (Count)
system.cpu.statFuBusy::SimdFloatAlu                 0      0.00%     80.09% # attempts to use FU when none available (Count)
system.cpu.statFuBusy::SimdFloatCmp                 0      0.00%     80.09% # attempts to use FU when none available (Count)
system.cpu.statFuBusy::SimdFloatCvt                 0      0.00%     80.09% # attempts to use FU when none available (Count)
system.cpu.statFuBusy::SimdFloatDiv                 0      0.00%     80.09% # attempts to use FU when none available (Count)
system.cpu.statFuBusy::SimdFloatMisc                0      0.00%     80.09% # attempts to use FU when none available (Count)
system.cpu.statFuBusy::SimdFloatMult                0      0.00%     80.09% # attempts to use FU when none available (Count)
system.cpu.statFuBusy::SimdFloatMultAcc             0      0.00%     80.09% # attempts to use FU when none available (Count)
system.cpu.statFuBusy::SimdFloatSqrt                0      0.00%     80.09% # attempts to use FU when none available (Count)
system.cpu.statFuBusy::SimdReduceAdd                0      0.00%     80.09% # attempts to use FU when none available (Count)
system.cpu.statFuBusy::SimdReduceAlu                0      0.00%     80.09% # attempts to use FU when none available (Count)
system.cpu.statFuBusy::SimdReduceCmp                0      0.00%     80.09% # attempts to use FU when none available (Count)
system.cpu.statFuBusy::SimdFloatReduceAdd            0      0.00%     80.09% # attempts to use FU when none available (Count)
system.cpu.statFuBusy::SimdFloatReduceCmp            0      0.00%     80.09% # attempts to use FU when none available (Count)
system.cpu.statFuBusy::SimdAes                      0      0.00%     80.09% # attempts to use FU when none available (Count)
system.cpu.statFuBusy::SimdAesMix                   0      0.00%     80.09% # attempts to use FU when none available (Count)
system.cpu.statFuBusy::SimdSha1Hash                 0      0.00%     80.09% # attempts to use FU when none available (Count)
system.cpu.statFuBusy::SimdSha1Hash2                0      0.00%     80.09% # attempts to use FU when none available (Count)
system.cpu.statFuBusy::SimdSha256Hash               0      0.00%     80.09% # attempts to use FU when none available (Count)
system.cpu.statFuBusy::SimdSha256Hash2              0      0.00%     80.09% # attempts to use FU when none available (Count)
system.cpu.statFuBusy::SimdShaSigma2                0      0.00%     80.09% # attempts to use FU when none available (Count)
system.cpu.statFuBusy::SimdShaSigma3                0      0.00%     80.09% # attempts to use FU when none available (Count)
system.cpu.statFuBusy::SimdPredAlu                  0      0.00%     80.09% # attempts to use FU when none available (Count)
system.cpu.statFuBusy::MemRead                 161342     13.81%     93.90% # attempts to use FU when none available (Count)
system.cpu.statFuBusy::MemWrite                 36140      3.09%     96.99% # attempts to use FU when none available (Count)
system.cpu.statFuBusy::FloatMemRead             22581      1.93%     98.92% # attempts to use FU when none available (Count)
system.cpu.statFuBusy::FloatMemWrite            12601      1.08%    100.00% # attempts to use FU when none available (Count)
system.cpu.statFuBusy::IprAccess                    0      0.00%    100.00% # attempts to use FU when none available (Count)
system.cpu.statFuBusy::InstPrefetch                 0      0.00%    100.00% # attempts to use FU when none available (Count)
system.cpu.statIssuedInstType_0::No_OpClass       867185      1.07%      1.07% # Number of instructions issued per FU type, per thread (Count)
system.cpu.statIssuedInstType_0::IntAlu      59251647     73.16%     74.23% # Number of instructions issued per FU type, per thread (Count)
system.cpu.statIssuedInstType_0::IntMult        89550      0.11%     74.34% # Number of instructions issued per FU type, per thread (Count)
system.cpu.statIssuedInstType_0::IntDiv        910375      1.12%     75.47% # Number of instructions issued per FU type, per thread (Count)
system.cpu.statIssuedInstType_0::FloatAdd       892018      1.10%     76.57% # Number of instructions issued per FU type, per thread (Count)
system.cpu.statIssuedInstType_0::FloatCmp            0      0.00%     76.57% # Number of instructions issued per FU type, per thread (Count)
system.cpu.statIssuedInstType_0::FloatCvt            0      0.00%     76.57% # Number of instructions issued per FU type, per thread (Count)
system.cpu.statIssuedInstType_0::FloatMult            0      0.00%     76.57% # Number of instructions issued per FU type, per thread (Count)
system.cpu.statIssuedInstType_0::FloatMultAcc            0      0.00%     76.57% # Number of instructions issued per FU type, per thread (Count)
system.cpu.statIssuedInstType_0::FloatDiv            0      0.00%     76.57% # Number of instructions issued per FU type, per thread (Count)
system.cpu.statIssuedInstType_0::FloatMisc            0      0.00%     76.57% # Number of instructions issued per FU type, per thread (Count)
system.cpu.statIssuedInstType_0::FloatSqrt            0      0.00%     76.57% # Number of instructions issued per FU type, per thread (Count)
system.cpu.statIssuedInstType_0::SimdAdd            0      0.00%     76.57% # Number of instructions issued per FU type, per thread (Count)
system.cpu.statIssuedInstType_0::SimdAddAcc            0      0.00%     76.57% # Number of instructions issued per FU type, per thread (Count)
system.cpu.statIssuedInstType_0::SimdAlu       288693      0.36%     76.92% # Number of instructions issued per FU type, per thread (Count)
system.cpu.statIssuedInstType_0::SimdCmp          336      0.00%     76.92% # Number of instructions issued per FU type, per thread (Count)
system.cpu.statIssuedInstType_0::SimdCvt       164817      0.20%     77.13% # Number of instructions issued per FU type, per thread (Count)
system.cpu.statIssuedInstType_0::SimdMisc       259092      0.32%     77.45% # Number of instructions issued per FU type, per thread (Count)
system.cpu.statIssuedInstType_0::SimdMult            0      0.00%     77.45% # Number of instructions issued per FU type, per thread (Count)
system.cpu.statIssuedInstType_0::SimdMultAcc            0      0.00%     77.45% # Number of instructions issued per FU type, per thread (Count)
system.cpu.statIssuedInstType_0::SimdShift            0      0.00%     77.45% # Number of instructions issued per FU type, per thread (Count)
system.cpu.statIssuedInstType_0::SimdShiftAcc            0      0.00%     77.45% # Number of instructions issued per FU type, per thread (Count)
system.cpu.statIssuedInstType_0::SimdDiv            0      0.00%     77.45% # Number of instructions issued per FU type, per thread (Count)
system.cpu.statIssuedInstType_0::SimdSqrt            0      0.00%     77.45% # Number of instructions issued per FU type, per thread (Count)
system.cpu.statIssuedInstType_0::SimdFloatAdd       278543      0.34%     77.79% # Number of instructions issued per FU type, per thread (Count)
system.cpu.statIssuedInstType_0::SimdFloatAlu            0      0.00%     77.79% # Number of instructions issued per FU type, per thread (Count)
system.cpu.statIssuedInstType_0::SimdFloatCmp            0      0.00%     77.79% # Number of instructions issued per FU type, per thread (Count)
system.cpu.statIssuedInstType_0::SimdFloatCvt        16384      0.02%     77.81% # Number of instructions issued per FU type, per thread (Count)
system.cpu.statIssuedInstType_0::SimdFloatDiv            0      0.00%     77.81% # Number of instructions issued per FU type, per thread (Count)
system.cpu.statIssuedInstType_0::SimdFloatMisc            0      0.00%     77.81% # Number of instructions issued per FU type, per thread (Count)
system.cpu.statIssuedInstType_0::SimdFloatMult       262144      0.32%     78.14% # Number of instructions issued per FU type, per thread (Count)
system.cpu.statIssuedInstType_0::SimdFloatMultAcc            0      0.00%     78.14% # Number of instructions issued per FU type, per thread (Count)
system.cpu.statIssuedInstType_0::SimdFloatSqrt            0      0.00%     78.14% # Number of instructions issued per FU type, per thread (Count)
system.cpu.statIssuedInstType_0::SimdReduceAdd            0      0.00%     78.14% # Number of instructions issued per FU type, per thread (Count)
system.cpu.statIssuedInstType_0::SimdReduceAlu            0      0.00%     78.14% # Number of instructions issued per FU type, per thread (Count)
system.cpu.statIssuedInstType_0::SimdReduceCmp            0      0.00%     78.14% # Number of instructions issued per FU type, per thread (Count)
system.cpu.statIssuedInstType_0::SimdFloatReduceAdd            0      0.00%     78.14% # Number of instructions issued per FU type, per thread (Count)
system.cpu.statIssuedInstType_0::SimdFloatReduceCmp            0      0.00%     78.14% # Number of instructions issued per FU type, per thread (Count)
system.cpu.statIssuedInstType_0::SimdAes            0      0.00%     78.14% # Number of instructions issued per FU type, per thread (Count)
system.cpu.statIssuedInstType_0::SimdAesMix            0      0.00%     78.14% # Number of instructions issued per FU type, per thread (Count)
system.cpu.statIssuedInstType_0::SimdSha1Hash            0      0.00%     78.14% # Number of instructions issued per FU type, per thread (Count)
system.cpu.statIssuedInstType_0::SimdSha1Hash2            0      0.00%     78.14% # Number of instructions issued per FU type, per thread (Count)
system.cpu.statIssuedInstType_0::SimdSha256Hash            0      0.00%     78.14% # Number of instructions issued per FU type, per thread (Count)
system.cpu.statIssuedInstType_0::SimdSha256Hash2            0      0.00%     78.14% # Number of instructions issued per FU type, per thread (Count)
system.cpu.statIssuedInstType_0::SimdShaSigma2            0      0.00%     78.14% # Number of instructions issued per FU type, per thread (Count)
system.cpu.statIssuedInstType_0::SimdShaSigma3            0      0.00%     78.14% # Number of instructions issued per FU type, per thread (Count)
system.cpu.statIssuedInstType_0::SimdPredAlu            0      0.00%     78.14% # Number of instructions issued per FU type, per thread (Count)
system.cpu.statIssuedInstType_0::MemRead     10146379     12.53%     90.66% # Number of instructions issued per FU type, per thread (Count)
system.cpu.statIssuedInstType_0::MemWrite      5454498      6.73%     97.40% # Number of instructions issued per FU type, per thread (Count)
system.cpu.statIssuedInstType_0::FloatMemRead      1344370      1.66%     99.06% # Number of instructions issued per FU type, per thread (Count)
system.cpu.statIssuedInstType_0::FloatMemWrite       762476      0.94%    100.00% # Number of instructions issued per FU type, per thread (Count)
system.cpu.statIssuedInstType_0::IprAccess            0      0.00%    100.00% # Number of instructions issued per FU type, per thread (Count)
system.cpu.statIssuedInstType_0::InstPrefetch            0      0.00%    100.00% # Number of instructions issued per FU type, per thread (Count)
system.cpu.statIssuedInstType_0::total       80988507                       # Number of instructions issued per FU type, per thread (Count)
system.cpu.issueRate                         2.320903                       # Inst issue rate ((Count/Cycle))
system.cpu.fuBusy                             1168333                       # FU busy when requested (Count)
system.cpu.fuBusyRate                        0.014426                       # FU busy rate (busy events/executed inst) ((Count/Count))
system.cpu.intInstQueueReads                188644150                       # Number of integer instruction queue reads (Count)
system.cpu.intInstQueueWrites                82363139                       # Number of integer instruction queue writes (Count)
system.cpu.intInstQueueWakeupAccesses        76244683                       # Number of integer instruction queue wakeup accesses (Count)
system.cpu.fpInstQueueReads                   8687599                       # Number of floating instruction queue reads (Count)
system.cpu.fpInstQueueWrites                  4389192                       # Number of floating instruction queue writes (Count)
system.cpu.fpInstQueueWakeupAccesses          4297312                       # Number of floating instruction queue wakeup accesses (Count)
system.cpu.vecInstQueueReads                        0                       # Number of vector instruction queue reads (Count)
system.cpu.vecInstQueueWrites                       0                       # Number of vector instruction queue writes (Count)
system.cpu.vecInstQueueWakeupAccesses               0                       # Number of vector instruction queue wakeup accesses (Count)
system.cpu.intAluAccesses                    76915304                       # Number of integer alu accesses (Count)
system.cpu.fpAluAccesses                      4374351                       # Number of floating point alu accesses (Count)
system.cpu.vecAluAccesses                           0                       # Number of vector alu accesses (Count)
system.cpu.numInsts                          80616335                       # Number of executed instructions (Count)
system.cpu.numLoadInsts                      11452661                       # Number of load instructions executed (Count)
system.cpu.numSquashedInsts                    372172                       # Number of squashed instructions skipped in execute (Count)
system.cpu.numSwp                                   0                       # Number of swp insts executed (Count)
system.cpu.numNop                                   0                       # Number of nop insts executed (Count)
system.cpu.numRefs                           17621050                       # Number of memory reference insts executed (Count)
system.cpu.numBranches                        8636701                       # Number of branches executed (Count)
system.cpu.numStoreInsts                      6168389                       # Number of stores executed (Count)
system.cpu.numRate                           2.310237                       # Inst execution rate ((Count/Cycle))
system.cpu.timesIdled                           39842                       # Number of times that the entire CPU went into an idle state and unscheduled itself (Count)
system.cpu.idleCycles                          742403                       # Total number of cycles that the CPU has spent unscheduled due to idling (Cycle)
system.cpu.committedInsts                    41289468                       # Number of Instructions Simulated (Count)
system.cpu.committedOps                      78315814                       # Number of Ops (including micro ops) Simulated (Count)
system.cpu.cpi                               0.845137                       # CPI: Cycles Per Instruction ((Cycle/Count))
system.cpu.totalCpi                          0.845137                       # CPI: Total CPI of All Threads ((Cycle/Count))
system.cpu.ipc                               1.183240                       # IPC: Instructions Per Cycle ((Count/Cycle))
system.cpu.totalIpc                          1.183240                       # IPC: Total IPC of All Threads ((Count/Cycle))
system.cpu.intRegfileReads                  124767295                       # Number of integer regfile reads (Count)
system.cpu.intRegfileWrites                  63416111                       # Number of integer regfile writes (Count)
system.cpu.fpRegfileReads                     3890492                       # Number of floating regfile reads (Count)
system.cpu.fpRegfileWrites                    3353369                       # Number of floating regfile writes (Count)
system.cpu.ccRegfileReads                    44176060                       # number of cc regfile reads (Count)
system.cpu.ccRegfileWrites                   26332623                       # number of cc regfile writes (Count)
system.cpu.miscRegfileReads                  32550878                       # number of misc regfile reads (Count)
system.cpu.MemDepUnit__0.insertedLoads       11527406                       # Number of loads inserted to the mem dependence unit. (Count)
system.cpu.MemDepUnit__0.insertedStores       6381097                       # Number of stores inserted to the mem dependence unit. (Count)
system.cpu.MemDepUnit__0.conflictingLoads      1938012                       # Number of conflicting loads. (Count)
system.cpu.MemDepUnit__0.conflictingStores       880064                       # Number of conflicting stores. (Count)
system.cpu.MemDepUnit__1.insertedLoads              0                       # Number of loads inserted to the mem dependence unit. (Count)
system.cpu.MemDepUnit__1.insertedStores             0                       # Number of stores inserted to the mem dependence unit. (Count)
system.cpu.MemDepUnit__1.conflictingLoads            0                       # Number of conflicting loads. (Count)
system.cpu.MemDepUnit__1.conflictingStores            0                       # Number of conflicting stores. (Count)
system.cpu.MemDepUnit__2.insertedLoads              0                       # Number of loads inserted to the mem dependence unit. (Count)
system.cpu.MemDepUnit__2.insertedStores             0                       # Number of stores inserted to the mem dependence unit. (Count)
system.cpu.MemDepUnit__2.conflictingLoads            0                       # Number of conflicting loads. (Count)
system.cpu.MemDepUnit__2.conflictingStores            0                       # Number of conflicting stores. (Count)
system.cpu.MemDepUnit__3.insertedLoads              0                       # Number of loads inserted to the mem dependence unit. (Count)
system.cpu.MemDepUnit__3.insertedStores             0                       # Number of stores inserted to the mem dependence unit. (Count)
system.cpu.MemDepUnit__3.conflictingLoads            0                       # Number of conflicting loads. (Count)
system.cpu.MemDepUnit__3.conflictingStores            0                       # Number of conflicting stores. (Count)
system.cpu.branchPred.lookups                 9483818                       # Number of BP lookups (Count)
system.cpu.branchPred.condPredicted           7652000                       # Number of conditional branches predicted (Count)
system.cpu.branchPred.condIncorrect            156656                       # Number of conditional branches incorrect (Count)
system.cpu.branchPred.BTBLookups              5543905                       # Number of BTB lookups (Count)
system.cpu.branchPred.BTBHits                 5491251                       # Number of BTB hits (Count)
system.cpu.branchPred.BTBHitRatio            0.990502                       # BTB Hit Ratio (Ratio)
system.cpu.branchPred.RASUsed                  522781                       # Number of times the RAS was used to get a target. (Count)
system.cpu.branchPred.RASIncorrect                  0                       # Number of incorrect RAS predictions. (Count)
system.cpu.branchPred.indirectLookups          109818                       # Number of indirect predictor lookups. (Count)
system.cpu.branchPred.indirectHits             108787                       # Number of indirect target hits. (Count)
system.cpu.branchPred.indirectMisses             1031                       # Number of indirect misses. (Count)
system.cpu.branchPred.indirectMispredicted          178                       # Number of mispredicted indirect branches. (Count)
system.cpu.commit.commitSquashedInsts         4025719                       # The number of squashed insts skipped by commit (Count)
system.cpu.commit.commitNonSpecStalls              18                       # The number of times commit has been forced to stall to communicate backwards (Count)
system.cpu.commit.branchMispredicts            144021                       # The number of times a branch was mispredicted (Count)
system.cpu.commit.numCommittedDist::samples     33579310                       # Number of insts commited each cycle (Count)
system.cpu.commit.numCommittedDist::mean     2.332264                       # Number of insts commited each cycle (Count)
system.cpu.commit.numCommittedDist::stdev     2.872540                       # Number of insts commited each cycle (Count)
system.cpu.commit.numCommittedDist::underflows            0      0.00%      0.00% # Number of insts commited each cycle (Count)
system.cpu.commit.numCommittedDist::0        14345394     42.72%     42.72% # Number of insts commited each cycle (Count)
system.cpu.commit.numCommittedDist::1         4095524     12.20%     54.92% # Number of insts commited each cycle (Count)
system.cpu.commit.numCommittedDist::2         3361425     10.01%     64.93% # Number of insts commited each cycle (Count)
system.cpu.commit.numCommittedDist::3         3275258      9.75%     74.68% # Number of insts commited each cycle (Count)
system.cpu.commit.numCommittedDist::4         1500774      4.47%     79.15% # Number of insts commited each cycle (Count)
system.cpu.commit.numCommittedDist::5          768479      2.29%     81.44% # Number of insts commited each cycle (Count)
system.cpu.commit.numCommittedDist::6          557175      1.66%     83.10% # Number of insts commited each cycle (Count)
system.cpu.commit.numCommittedDist::7          919123      2.74%     85.84% # Number of insts commited each cycle (Count)
system.cpu.commit.numCommittedDist::8         4756158     14.16%    100.00% # Number of insts commited each cycle (Count)
system.cpu.commit.numCommittedDist::overflows            0      0.00%    100.00% # Number of insts commited each cycle (Count)
system.cpu.commit.numCommittedDist::min_value            0                       # Number of insts commited each cycle (Count)
system.cpu.commit.numCommittedDist::max_value            8                       # Number of insts commited each cycle (Count)
system.cpu.commit.numCommittedDist::total     33579310                       # Number of insts commited each cycle (Count)
system.cpu.commit.instsCommitted             41289468                       # Number of instructions committed (Count)
system.cpu.commit.opsCommitted               78315814                       # Number of ops (including micro ops) committed (Count)
system.cpu.commit.memRefs                    17180900                       # Number of memory references committed (Count)
system.cpu.commit.loads                      11117876                       # Number of loads committed (Count)
system.cpu.commit.amos                              0                       # Number of atomic instructions committed (Count)
system.cpu.commit.membars                          12                       # Number of memory barriers committed (Count)
system.cpu.commit.branches                    8399625                       # Number of branches committed (Count)
system.cpu.commit.vectorInstructions                0                       # Number of committed Vector instructions. (Count)
system.cpu.commit.floating                    4284466                       # Number of committed floating point instructions. (Count)
system.cpu.commit.integer                    74436717                       # Number of committed integer instructions. (Count)
system.cpu.commit.functionCalls                491734                       # Number of function calls committed. (Count)
system.cpu.commit.committedInstType_0::No_OpClass       850890      1.09%      1.09% # Class of committed instruction (Count)
system.cpu.commit.committedInstType_0::IntAlu     57163185     72.99%     74.08% # Class of committed instruction (Count)
system.cpu.commit.committedInstType_0::IntMult        89549      0.11%     74.19% # Class of committed instruction (Count)
system.cpu.commit.committedInstType_0::IntDiv       882475      1.13%     75.32% # Class of committed instruction (Count)
system.cpu.commit.committedInstType_0::FloatAdd       880794      1.12%     76.44% # Class of committed instruction (Count)
system.cpu.commit.committedInstType_0::FloatCmp            0      0.00%     76.44% # Class of committed instruction (Count)
system.cpu.commit.committedInstType_0::FloatCvt            0      0.00%     76.44% # Class of committed instruction (Count)
system.cpu.commit.committedInstType_0::FloatMult            0      0.00%     76.44% # Class of committed instruction (Count)
system.cpu.commit.committedInstType_0::FloatMultAcc            0      0.00%     76.44% # Class of committed instruction (Count)
system.cpu.commit.committedInstType_0::FloatDiv            0      0.00%     76.44% # Class of committed instruction (Count)
system.cpu.commit.committedInstType_0::FloatMisc            0      0.00%     76.44% # Class of committed instruction (Count)
system.cpu.commit.committedInstType_0::FloatSqrt            0      0.00%     76.44% # Class of committed instruction (Count)
system.cpu.commit.committedInstType_0::SimdAdd            0      0.00%     76.44% # Class of committed instruction (Count)
system.cpu.commit.committedInstType_0::SimdAddAcc            0      0.00%     76.44% # Class of committed instruction (Count)
system.cpu.commit.committedInstType_0::SimdAlu       287296      0.37%     76.81% # Class of committed instruction (Count)
system.cpu.commit.committedInstType_0::SimdCmp          336      0.00%     76.81% # Class of committed instruction (Count)
system.cpu.commit.committedInstType_0::SimdCvt       164462      0.21%     77.02% # Class of committed instruction (Count)
system.cpu.commit.committedInstType_0::SimdMisc       258871      0.33%     77.35% # Class of committed instruction (Count)
system.cpu.commit.committedInstType_0::SimdMult            0      0.00%     77.35% # Class of committed instruction (Count)
system.cpu.commit.committedInstType_0::SimdMultAcc            0      0.00%     77.35% # Class of committed instruction (Count)
system.cpu.commit.committedInstType_0::SimdShift            0      0.00%     77.35% # Class of committed instruction (Count)
system.cpu.commit.committedInstType_0::SimdShiftAcc            0      0.00%     77.35% # Class of committed instruction (Count)
system.cpu.commit.committedInstType_0::SimdDiv            0      0.00%     77.35% # Class of committed instruction (Count)
system.cpu.commit.committedInstType_0::SimdSqrt            0      0.00%     77.35% # Class of committed instruction (Count)
system.cpu.commit.committedInstType_0::SimdFloatAdd       278528      0.36%     77.71% # Class of committed instruction (Count)
system.cpu.commit.committedInstType_0::SimdFloatAlu            0      0.00%     77.71% # Class of committed instruction (Count)
system.cpu.commit.committedInstType_0::SimdFloatCmp            0      0.00%     77.71% # Class of committed instruction (Count)
system.cpu.commit.committedInstType_0::SimdFloatCvt        16384      0.02%     77.73% # Class of committed instruction (Count)
system.cpu.commit.committedInstType_0::SimdFloatDiv            0      0.00%     77.73% # Class of committed instruction (Count)
system.cpu.commit.committedInstType_0::SimdFloatMisc            0      0.00%     77.73% # Class of committed instruction (Count)
system.cpu.commit.committedInstType_0::SimdFloatMult       262144      0.33%     78.06% # Class of committed instruction (Count)
system.cpu.commit.committedInstType_0::SimdFloatMultAcc            0      0.00%     78.06% # Class of committed instruction (Count)
system.cpu.commit.committedInstType_0::SimdFloatSqrt            0      0.00%     78.06% # Class of committed instruction (Count)
system.cpu.commit.committedInstType_0::SimdReduceAdd            0      0.00%     78.06% # Class of committed instruction (Count)
system.cpu.commit.committedInstType_0::SimdReduceAlu            0      0.00%     78.06% # Class of committed instruction (Count)
system.cpu.commit.committedInstType_0::SimdReduceCmp            0      0.00%     78.06% # Class of committed instruction (Count)
system.cpu.commit.committedInstType_0::SimdFloatReduceAdd            0      0.00%     78.06% # Class of committed instruction (Count)
system.cpu.commit.committedInstType_0::SimdFloatReduceCmp            0      0.00%     78.06% # Class of committed instruction (Count)
system.cpu.commit.committedInstType_0::SimdAes            0      0.00%     78.06% # Class of committed instruction (Count)
system.cpu.commit.committedInstType_0::SimdAesMix            0      0.00%     78.06% # Class of committed instruction (Count)
system.cpu.commit.committedInstType_0::SimdSha1Hash            0      0.00%     78.06% # Class of committed instruction (Count)
system.cpu.commit.committedInstType_0::SimdSha1Hash2            0      0.00%     78.06% # Class of committed instruction (Count)
system.cpu.commit.committedInstType_0::SimdSha256Hash            0      0.00%     78.06% # Class of committed instruction (Count)
system.cpu.commit.committedInstType_0::SimdSha256Hash2            0      0.00%     78.06% # Class of committed instruction (Count)
system.cpu.commit.committedInstType_0::SimdShaSigma2            0      0.00%     78.06% # Class of committed instruction (Count)
system.cpu.commit.committedInstType_0::SimdShaSigma3            0      0.00%     78.06% # Class of committed instruction (Count)
system.cpu.commit.committedInstType_0::SimdPredAlu            0      0.00%     78.06% # Class of committed instruction (Count)
system.cpu.commit.committedInstType_0::MemRead      9777520     12.48%     90.55% # Class of committed instruction (Count)
system.cpu.commit.committedInstType_0::MemWrite      5308845      6.78%     97.33% # Class of committed instruction (Count)
system.cpu.commit.committedInstType_0::FloatMemRead      1340356      1.71%     99.04% # Class of committed instruction (Count)
system.cpu.commit.committedInstType_0::FloatMemWrite       754179      0.96%    100.00% # Class of committed instruction (Count)
system.cpu.commit.committedInstType_0::IprAccess            0      0.00%    100.00% # Class of committed instruction (Count)
system.cpu.commit.committedInstType_0::InstPrefetch            0      0.00%    100.00% # Class of committed instruction (Count)
system.cpu.commit.committedInstType_0::total     78315814                       # Class of committed instruction (Count)
system.cpu.commit.commitEligibleSamples       4756158                       # number cycles where commit BW limit reached (Cycle)
system.cpu.dcache.demandHits::cpu.data       14242356                       # number of demand (read+write) hits (Count)
system.cpu.dcache.demandHits::total          14242356                       # number of demand (read+write) hits (Count)
system.cpu.dcache.overallHits::cpu.data      14242356                       # number of overall hits (Count)
system.cpu.dcache.overallHits::total         14242356                       # number of overall hits (Count)
system.cpu.dcache.demandMisses::cpu.data       359345                       # number of demand (read+write) misses (Count)
system.cpu.dcache.demandMisses::total          359345                       # number of demand (read+write) misses (Count)
system.cpu.dcache.overallMisses::cpu.data       359345                       # number of overall misses (Count)
system.cpu.dcache.overallMisses::total         359345                       # number of overall misses (Count)
system.cpu.dcache.demandMissLatency::cpu.data  18810961499                       # number of demand (read+write) miss ticks (Tick)
system.cpu.dcache.demandMissLatency::total  18810961499                       # number of demand (read+write) miss ticks (Tick)
system.cpu.dcache.overallMissLatency::cpu.data  18810961499                       # number of overall miss ticks (Tick)
system.cpu.dcache.overallMissLatency::total  18810961499                       # number of overall miss ticks (Tick)
system.cpu.dcache.demandAccesses::cpu.data     14601701                       # number of demand (read+write) accesses (Count)
system.cpu.dcache.demandAccesses::total      14601701                       # number of demand (read+write) accesses (Count)
system.cpu.dcache.overallAccesses::cpu.data     14601701                       # number of overall (read+write) accesses (Count)
system.cpu.dcache.overallAccesses::total     14601701                       # number of overall (read+write) accesses (Count)
system.cpu.dcache.demandMissRate::cpu.data     0.024610                       # miss rate for demand accesses (Ratio)
system.cpu.dcache.demandMissRate::total      0.024610                       # miss rate for demand accesses (Ratio)
system.cpu.dcache.overallMissRate::cpu.data     0.024610                       # miss rate for overall accesses (Ratio)
system.cpu.dcache.overallMissRate::total     0.024610                       # miss rate for overall accesses (Ratio)
system.cpu.dcache.demandAvgMissLatency::cpu.data 52347.914954                       # average overall miss latency ((Cycle/Count))
system.cpu.dcache.demandAvgMissLatency::total 52347.914954                       # average overall miss latency ((Cycle/Count))
system.cpu.dcache.overallAvgMissLatency::cpu.data 52347.914954                       # average overall miss latency ((Cycle/Count))
system.cpu.dcache.overallAvgMissLatency::total 52347.914954                       # average overall miss latency ((Cycle/Count))
system.cpu.dcache.blockedCycles::no_mshrs       470383                       # number of cycles access was blocked (Cycle)
system.cpu.dcache.blockedCycles::no_targets            0                       # number of cycles access was blocked (Cycle)
system.cpu.dcache.blockedCauses::no_mshrs        13844                       # number of times access was blocked (Count)
system.cpu.dcache.blockedCauses::no_targets            0                       # number of times access was blocked (Count)
system.cpu.dcache.avgBlocked::no_mshrs      33.977391                       # average number of cycles each access was blocked ((Cycle/Count))
system.cpu.dcache.avgBlocked::no_targets          nan                       # average number of cycles each access was blocked ((Cycle/Count))
system.cpu.dcache.writebacks::writebacks        15995                       # number of writebacks (Count)
system.cpu.dcache.writebacks::total             15995                       # number of writebacks (Count)
system.cpu.dcache.demandMshrHits::cpu.data        62940                       # number of demand (read+write) MSHR hits (Count)
system.cpu.dcache.demandMshrHits::total         62940                       # number of demand (read+write) MSHR hits (Count)
system.cpu.dcache.overallMshrHits::cpu.data        62940                       # number of overall MSHR hits (Count)
system.cpu.dcache.overallMshrHits::total        62940                       # number of overall MSHR hits (Count)
system.cpu.dcache.demandMshrMisses::cpu.data       296405                       # number of demand (read+write) MSHR misses (Count)
system.cpu.dcache.demandMshrMisses::total       296405                       # number of demand (read+write) MSHR misses (Count)
system.cpu.dcache.overallMshrMisses::cpu.data       296405                       # number of overall MSHR misses (Count)
system.cpu.dcache.overallMshrMisses::total       296405                       # number of overall MSHR misses (Count)
system.cpu.dcache.demandMshrMissLatency::cpu.data  15905301499                       # number of demand (read+write) MSHR miss ticks (Tick)
system.cpu.dcache.demandMshrMissLatency::total  15905301499                       # number of demand (read+write) MSHR miss ticks (Tick)
system.cpu.dcache.overallMshrMissLatency::cpu.data  15905301499                       # number of overall MSHR miss ticks (Tick)
system.cpu.dcache.overallMshrMissLatency::total  15905301499                       # number of overall MSHR miss ticks (Tick)
system.cpu.dcache.demandMshrMissRate::cpu.data     0.020299                       # mshr miss ratio for demand accesses (Ratio)
system.cpu.dcache.demandMshrMissRate::total     0.020299                       # mshr miss ratio for demand accesses (Ratio)
system.cpu.dcache.overallMshrMissRate::cpu.data     0.020299                       # mshr miss ratio for overall accesses (Ratio)
system.cpu.dcache.overallMshrMissRate::total     0.020299                       # mshr miss ratio for overall accesses (Ratio)
system.cpu.dcache.demandAvgMshrMissLatency::cpu.data 53660.705788                       # average overall mshr miss latency ((Cycle/Count))
system.cpu.dcache.demandAvgMshrMissLatency::total 53660.705788                       # average overall mshr miss latency ((Cycle/Count))
system.cpu.dcache.overallAvgMshrMissLatency::cpu.data 53660.705788                       # average overall mshr miss latency ((Cycle/Count))
system.cpu.dcache.overallAvgMshrMissLatency::total 53660.705788                       # average overall mshr miss latency ((Cycle/Count))
system.cpu.dcache.replacements                 296149                       # number of replacements (Count)
system.cpu.dcache.ReadReq.hits::cpu.data      8187400                       # number of ReadReq hits (Count)
system.cpu.dcache.ReadReq.hits::total         8187400                       # number of ReadReq hits (Count)
system.cpu.dcache.ReadReq.misses::cpu.data       351276                       # number of ReadReq misses (Count)
system.cpu.dcache.ReadReq.misses::total        351276                       # number of ReadReq misses (Count)
system.cpu.dcache.ReadReq.missLatency::cpu.data  18471325000                       # number of ReadReq miss ticks (Tick)
system.cpu.dcache.ReadReq.missLatency::total  18471325000                       # number of ReadReq miss ticks (Tick)
system.cpu.dcache.ReadReq.accesses::cpu.data      8538676                       # number of ReadReq accesses(hits+misses) (Count)
system.cpu.dcache.ReadReq.accesses::total      8538676                       # number of ReadReq accesses(hits+misses) (Count)
system.cpu.dcache.ReadReq.missRate::cpu.data     0.041139                       # miss rate for ReadReq accesses (Ratio)
system.cpu.dcache.ReadReq.missRate::total     0.041139                       # miss rate for ReadReq accesses (Ratio)
system.cpu.dcache.ReadReq.avgMissLatency::cpu.data 52583.509833                       # average ReadReq miss latency ((Tick/Count))
system.cpu.dcache.ReadReq.avgMissLatency::total 52583.509833                       # average ReadReq miss latency ((Tick/Count))
system.cpu.dcache.ReadReq.mshrHits::cpu.data        62910                       # number of ReadReq MSHR hits (Count)
system.cpu.dcache.ReadReq.mshrHits::total        62910                       # number of ReadReq MSHR hits (Count)
system.cpu.dcache.ReadReq.mshrMisses::cpu.data       288366                       # number of ReadReq MSHR misses (Count)
system.cpu.dcache.ReadReq.mshrMisses::total       288366                       # number of ReadReq MSHR misses (Count)
system.cpu.dcache.ReadReq.mshrMissLatency::cpu.data  15574580000                       # number of ReadReq MSHR miss ticks (Tick)
system.cpu.dcache.ReadReq.mshrMissLatency::total  15574580000                       # number of ReadReq MSHR miss ticks (Tick)
system.cpu.dcache.ReadReq.mshrMissRate::cpu.data     0.033772                       # mshr miss rate for ReadReq accesses (Ratio)
system.cpu.dcache.ReadReq.mshrMissRate::total     0.033772                       # mshr miss rate for ReadReq accesses (Ratio)
system.cpu.dcache.ReadReq.avgMshrMissLatency::cpu.data 54009.765368                       # average ReadReq mshr miss latency ((Tick/Count))
system.cpu.dcache.ReadReq.avgMshrMissLatency::total 54009.765368                       # average ReadReq mshr miss latency ((Tick/Count))
system.cpu.dcache.WriteReq.hits::cpu.data      6054956                       # number of WriteReq hits (Count)
system.cpu.dcache.WriteReq.hits::total        6054956                       # number of WriteReq hits (Count)
system.cpu.dcache.WriteReq.misses::cpu.data         8069                       # number of WriteReq misses (Count)
system.cpu.dcache.WriteReq.misses::total         8069                       # number of WriteReq misses (Count)
system.cpu.dcache.WriteReq.missLatency::cpu.data    339636499                       # number of WriteReq miss ticks (Tick)
system.cpu.dcache.WriteReq.missLatency::total    339636499                       # number of WriteReq miss ticks (Tick)
system.cpu.dcache.WriteReq.accesses::cpu.data      6063025                       # number of WriteReq accesses(hits+misses) (Count)
system.cpu.dcache.WriteReq.accesses::total      6063025                       # number of WriteReq accesses(hits+misses) (Count)
system.cpu.dcache.WriteReq.missRate::cpu.data     0.001331                       # miss rate for WriteReq accesses (Ratio)
system.cpu.dcache.WriteReq.missRate::total     0.001331                       # miss rate for WriteReq accesses (Ratio)
system.cpu.dcache.WriteReq.avgMissLatency::cpu.data 42091.522989                       # average WriteReq miss latency ((Tick/Count))
system.cpu.dcache.WriteReq.avgMissLatency::total 42091.522989                       # average WriteReq miss latency ((Tick/Count))
system.cpu.dcache.WriteReq.mshrHits::cpu.data           30                       # number of WriteReq MSHR hits (Count)
system.cpu.dcache.WriteReq.mshrHits::total           30                       # number of WriteReq MSHR hits (Count)
system.cpu.dcache.WriteReq.mshrMisses::cpu.data         8039                       # number of WriteReq MSHR misses (Count)
system.cpu.dcache.WriteReq.mshrMisses::total         8039                       # number of WriteReq MSHR misses (Count)
system.cpu.dcache.WriteReq.mshrMissLatency::cpu.data    330721499                       # number of WriteReq MSHR miss ticks (Tick)
system.cpu.dcache.WriteReq.mshrMissLatency::total    330721499                       # number of WriteReq MSHR miss ticks (Tick)
system.cpu.dcache.WriteReq.mshrMissRate::cpu.data     0.001326                       # mshr miss rate for WriteReq accesses (Ratio)
system.cpu.dcache.WriteReq.mshrMissRate::total     0.001326                       # mshr miss rate for WriteReq accesses (Ratio)
system.cpu.dcache.WriteReq.avgMshrMissLatency::cpu.data 41139.631671                       # average WriteReq mshr miss latency ((Tick/Count))
system.cpu.dcache.WriteReq.avgMshrMissLatency::total 41139.631671                       # average WriteReq mshr miss latency ((Tick/Count))
system.cpu.dcache.power_state.pwrStateResidencyTicks::UNDEFINED  17447629500                       # Cumulative time (in ticks) in various power states (Tick)
system.cpu.dcache.tags.tagsInUse           255.758544                       # Average ticks per tags in use ((Tick/Count))
system.cpu.dcache.tags.totalRefs             14538761                       # Total number of references to valid blocks. (Count)
system.cpu.dcache.tags.sampledRefs             296405                       # Sample count of references to valid blocks. (Count)
system.cpu.dcache.tags.avgRefs              49.050323                       # Average number of references to valid blocks. ((Count/Count))
system.cpu.dcache.tags.warmupTick              145000                       # The tick when the warmup percentage was hit. (Tick)
system.cpu.dcache.tags.occupancies::cpu.data   255.758544                       # Average occupied blocks per tick, per requestor ((Count/Tick))
system.cpu.dcache.tags.avgOccs::cpu.data     0.999057                       # Average percentage of cache occupancy ((Ratio/Tick))
system.cpu.dcache.tags.avgOccs::total        0.999057                       # Average percentage of cache occupancy ((Ratio/Tick))
system.cpu.dcache.tags.occupanciesTaskId::1024          256                       # Occupied blocks per task id (Count)
system.cpu.dcache.tags.ageTaskId_1024::0           77                       # Occupied blocks per task id, per block age (Count)
system.cpu.dcache.tags.ageTaskId_1024::1          179                       # Occupied blocks per task id, per block age (Count)
system.cpu.dcache.tags.ratioOccsTaskId::1024            1                       # Ratio of occupied blocks and all blocks, per task id (Ratio)
system.cpu.dcache.tags.tagAccesses           29499807                       # Number of tag accesses (Count)
system.cpu.dcache.tags.dataAccesses          29499807                       # Number of data accesses (Count)
system.cpu.dcache.tags.power_state.pwrStateResidencyTicks::UNDEFINED  17447629500                       # Cumulative time (in ticks) in various power states (Tick)
system.cpu.decode.idleCycles                  7140691                       # Number of cycles decode is idle (Cycle)
system.cpu.decode.blockedCycles              13862143                       # Number of cycles decode is blocked (Cycle)
system.cpu.decode.runCycles                  11569987                       # Number of cycles decode is running (Cycle)
system.cpu.decode.unblockCycles               1430715                       # Number of cycles decode is unblocking (Cycle)
system.cpu.decode.squashCycles                 149321                       # Number of cycles decode is squashing (Cycle)
system.cpu.decode.branchResolved              5218402                       # Number of times decode resolved a branch (Count)
system.cpu.decode.branchMispred                 12805                       # Number of times decode detected a branch misprediction (Count)
system.cpu.decode.decodedInsts               84076152                       # Number of instructions handled by decode (Count)
system.cpu.decode.squashedInsts                100728                       # Number of squashed instructions handled by decode (Count)
system.cpu.dtb_walker_cache.blockedCycles::no_mshrs            0                       # number of cycles access was blocked (Cycle)
system.cpu.dtb_walker_cache.blockedCycles::no_targets            0                       # number of cycles access was blocked (Cycle)
system.cpu.dtb_walker_cache.blockedCauses::no_mshrs            0                       # number of times access was blocked (Count)
system.cpu.dtb_walker_cache.blockedCauses::no_targets            0                       # number of times access was blocked (Count)
system.cpu.dtb_walker_cache.avgBlocked::no_mshrs          nan                       # average number of cycles each access was blocked ((Cycle/Count))
system.cpu.dtb_walker_cache.avgBlocked::no_targets          nan                       # average number of cycles each access was blocked ((Cycle/Count))
system.cpu.dtb_walker_cache.replacements            0                       # number of replacements (Count)
system.cpu.dtb_walker_cache.power_state.pwrStateResidencyTicks::UNDEFINED  17447629500                       # Cumulative time (in ticks) in various power states (Tick)
system.cpu.dtb_walker_cache.tags.tagsInUse            0                       # Average ticks per tags in use ((Tick/Count))
system.cpu.dtb_walker_cache.tags.totalRefs            0                       # Total number of references to valid blocks. (Count)
system.cpu.dtb_walker_cache.tags.sampledRefs            0                       # Sample count of references to valid blocks. (Count)
system.cpu.dtb_walker_cache.tags.avgRefs          nan                       # Average number of references to valid blocks. ((Count/Count))
system.cpu.dtb_walker_cache.tags.warmupTick            0                       # The tick when the warmup percentage was hit. (Tick)
system.cpu.dtb_walker_cache.tags.tagAccesses            0                       # Number of tag accesses (Count)
system.cpu.dtb_walker_cache.tags.dataAccesses            0                       # Number of data accesses (Count)
system.cpu.dtb_walker_cache.tags.power_state.pwrStateResidencyTicks::UNDEFINED  17447629500                       # Cumulative time (in ticks) in various power states (Tick)
system.cpu.fetch.icacheStallCycles            7997149                       # Number of cycles fetch is stalled on an Icache miss (Cycle)
system.cpu.fetch.insts                       44470587                       # Number of instructions fetch has processed (Count)
system.cpu.fetch.branches                     9483818                       # Number of branches that fetch encountered (Count)
system.cpu.fetch.predictedBranches            6122819                       # Number of branches that fetch has predicted taken (Count)
system.cpu.fetch.cycles                      25991739                       # Number of cycles fetch has run and was not squashing or blocked (Cycle)
system.cpu.fetch.squashCycles                  324224                       # Number of cycles fetch has spent squashing (Cycle)
system.cpu.fetch.miscStallCycles                  175                       # Number of cycles fetch has spent waiting on interrupts, or bad addresses, or out of MSHRs (Cycle)
system.cpu.fetch.pendingTrapStallCycles          1032                       # Number of stall cycles due to pending traps (Cycle)
system.cpu.fetch.pendingQuiesceStallCycles            2                       # Number of stall cycles due to pending quiesce instructions (Cycle)
system.cpu.fetch.icacheWaitRetryStallCycles          648                       # Number of stall cycles due to full MSHR (Cycle)
system.cpu.fetch.cacheLines                   6326959                       # Number of cache lines fetched (Count)
system.cpu.fetch.icacheSquashes                 30585                       # Number of outstanding Icache misses that were squashed (Count)
system.cpu.fetch.nisnDist::samples           34152857                       # Number of instructions fetched each cycle (Total) (Count)
system.cpu.fetch.nisnDist::mean              2.523125                       # Number of instructions fetched each cycle (Total) (Count)
system.cpu.fetch.nisnDist::stdev             3.366827                       # Number of instructions fetched each cycle (Total) (Count)
system.cpu.fetch.nisnDist::underflows               0      0.00%      0.00% # Number of instructions fetched each cycle (Total) (Count)
system.cpu.fetch.nisnDist::0                 19960967     58.45%     58.45% # Number of instructions fetched each cycle (Total) (Count)
system.cpu.fetch.nisnDist::1                   796834      2.33%     60.78% # Number of instructions fetched each cycle (Total) (Count)
system.cpu.fetch.nisnDist::2                   934878      2.74%     63.52% # Number of instructions fetched each cycle (Total) (Count)
system.cpu.fetch.nisnDist::3                   921730      2.70%     66.22% # Number of instructions fetched each cycle (Total) (Count)
system.cpu.fetch.nisnDist::4                  1558453      4.56%     70.78% # Number of instructions fetched each cycle (Total) (Count)
system.cpu.fetch.nisnDist::5                  1143816      3.35%     74.13% # Number of instructions fetched each cycle (Total) (Count)
system.cpu.fetch.nisnDist::6                   608807      1.78%     75.91% # Number of instructions fetched each cycle (Total) (Count)
system.cpu.fetch.nisnDist::7                   684566      2.00%     77.91% # Number of instructions fetched each cycle (Total) (Count)
system.cpu.fetch.nisnDist::8                  7542806     22.09%    100.00% # Number of instructions fetched each cycle (Total) (Count)
system.cpu.fetch.nisnDist::overflows                0      0.00%    100.00% # Number of instructions fetched each cycle (Total) (Count)
system.cpu.fetch.nisnDist::min_value                0                       # Number of instructions fetched each cycle (Total) (Count)
system.cpu.fetch.nisnDist::max_value                8                       # Number of instructions fetched each cycle (Total) (Count)
system.cpu.fetch.nisnDist::total             34152857                       # Number of instructions fetched each cycle (Total) (Count)
system.cpu.fetch.branchRate                  0.271780                       # Number of branch fetches per cycle (Ratio)
system.cpu.fetch.rate                        1.274402                       # Number of inst fetches per cycle ((Count/Cycle))
system.cpu.icache.demandHits::cpu.inst        6268331                       # number of demand (read+write) hits (Count)
system.cpu.icache.demandHits::total           6268331                       # number of demand (read+write) hits (Count)
system.cpu.icache.overallHits::cpu.inst       6268331                       # number of overall hits (Count)
system.cpu.icache.overallHits::total          6268331                       # number of overall hits (Count)
system.cpu.icache.demandMisses::cpu.inst        58628                       # number of demand (read+write) misses (Count)
system.cpu.icache.demandMisses::total           58628                       # number of demand (read+write) misses (Count)
system.cpu.icache.overallMisses::cpu.inst        58628                       # number of overall misses (Count)
system.cpu.icache.overallMisses::total          58628                       # number of overall misses (Count)
system.cpu.icache.demandMissLatency::cpu.inst   1337366998                       # number of demand (read+write) miss ticks (Tick)
system.cpu.icache.demandMissLatency::total   1337366998                       # number of demand (read+write) miss ticks (Tick)
system.cpu.icache.overallMissLatency::cpu.inst   1337366998                       # number of overall miss ticks (Tick)
system.cpu.icache.overallMissLatency::total   1337366998                       # number of overall miss ticks (Tick)
system.cpu.icache.demandAccesses::cpu.inst      6326959                       # number of demand (read+write) accesses (Count)
system.cpu.icache.demandAccesses::total       6326959                       # number of demand (read+write) accesses (Count)
system.cpu.icache.overallAccesses::cpu.inst      6326959                       # number of overall (read+write) accesses (Count)
system.cpu.icache.overallAccesses::total      6326959                       # number of overall (read+write) accesses (Count)
system.cpu.icache.demandMissRate::cpu.inst     0.009266                       # miss rate for demand accesses (Ratio)
system.cpu.icache.demandMissRate::total      0.009266                       # miss rate for demand accesses (Ratio)
system.cpu.icache.overallMissRate::cpu.inst     0.009266                       # miss rate for overall accesses (Ratio)
system.cpu.icache.overallMissRate::total     0.009266                       # miss rate for overall accesses (Ratio)
system.cpu.icache.demandAvgMissLatency::cpu.inst 22811.062939                       # average overall miss latency ((Cycle/Count))
system.cpu.icache.demandAvgMissLatency::total 22811.062939                       # average overall miss latency ((Cycle/Count))
system.cpu.icache.overallAvgMissLatency::cpu.inst 22811.062939                       # average overall miss latency ((Cycle/Count))
system.cpu.icache.overallAvgMissLatency::total 22811.062939                       # average overall miss latency ((Cycle/Count))
system.cpu.icache.blockedCycles::no_mshrs         1264                       # number of cycles access was blocked (Cycle)
system.cpu.icache.blockedCycles::no_targets            0                       # number of cycles access was blocked (Cycle)
system.cpu.icache.blockedCauses::no_mshrs            8                       # number of times access was blocked (Count)
system.cpu.icache.blockedCauses::no_targets            0                       # number of times access was blocked (Count)
system.cpu.icache.avgBlocked::no_mshrs            158                       # average number of cycles each access was blocked ((Cycle/Count))
system.cpu.icache.avgBlocked::no_targets          nan                       # average number of cycles each access was blocked ((Cycle/Count))
system.cpu.icache.writebacks::writebacks        53835                       # number of writebacks (Count)
system.cpu.icache.writebacks::total             53835                       # number of writebacks (Count)
system.cpu.icache.demandMshrHits::cpu.inst         4294                       # number of demand (read+write) MSHR hits (Count)
system.cpu.icache.demandMshrHits::total          4294                       # number of demand (read+write) MSHR hits (Count)
system.cpu.icache.overallMshrHits::cpu.inst         4294                       # number of overall MSHR hits (Count)
system.cpu.icache.overallMshrHits::total         4294                       # number of overall MSHR hits (Count)
system.cpu.icache.demandMshrMisses::cpu.inst        54334                       # number of demand (read+write) MSHR misses (Count)
system.cpu.icache.demandMshrMisses::total        54334                       # number of demand (read+write) MSHR misses (Count)
system.cpu.icache.overallMshrMisses::cpu.inst        54334                       # number of overall MSHR misses (Count)
system.cpu.icache.overallMshrMisses::total        54334                       # number of overall MSHR misses (Count)
system.cpu.icache.demandMshrMissLatency::cpu.inst   1237688998                       # number of demand (read+write) MSHR miss ticks (Tick)
system.cpu.icache.demandMshrMissLatency::total   1237688998                       # number of demand (read+write) MSHR miss ticks (Tick)
system.cpu.icache.overallMshrMissLatency::cpu.inst   1237688998                       # number of overall MSHR miss ticks (Tick)
system.cpu.icache.overallMshrMissLatency::total   1237688998                       # number of overall MSHR miss ticks (Tick)
system.cpu.icache.demandMshrMissRate::cpu.inst     0.008588                       # mshr miss ratio for demand accesses (Ratio)
system.cpu.icache.demandMshrMissRate::total     0.008588                       # mshr miss ratio for demand accesses (Ratio)
system.cpu.icache.overallMshrMissRate::cpu.inst     0.008588                       # mshr miss ratio for overall accesses (Ratio)
system.cpu.icache.overallMshrMissRate::total     0.008588                       # mshr miss ratio for overall accesses (Ratio)
system.cpu.icache.demandAvgMshrMissLatency::cpu.inst 22779.272610                       # average overall mshr miss latency ((Cycle/Count))
system.cpu.icache.demandAvgMshrMissLatency::total 22779.272610                       # average overall mshr miss latency ((Cycle/Count))
system.cpu.icache.overallAvgMshrMissLatency::cpu.inst 22779.272610                       # average overall mshr miss latency ((Cycle/Count))
system.cpu.icache.overallAvgMshrMissLatency::total 22779.272610                       # average overall mshr miss latency ((Cycle/Count))
system.cpu.icache.replacements                  53835                       # number of replacements (Count)
system.cpu.icache.ReadReq.hits::cpu.inst      6268331                       # number of ReadReq hits (Count)
system.cpu.icache.ReadReq.hits::total         6268331                       # number of ReadReq hits (Count)
system.cpu.icache.ReadReq.misses::cpu.inst        58628                       # number of ReadReq misses (Count)
system.cpu.icache.ReadReq.misses::total         58628                       # number of ReadReq misses (Count)
system.cpu.icache.ReadReq.missLatency::cpu.inst   1337366998                       # number of ReadReq miss ticks (Tick)
system.cpu.icache.ReadReq.missLatency::total   1337366998                       # number of ReadReq miss ticks (Tick)
system.cpu.icache.ReadReq.accesses::cpu.inst      6326959                       # number of ReadReq accesses(hits+misses) (Count)
system.cpu.icache.ReadReq.accesses::total      6326959                       # number of ReadReq accesses(hits+misses) (Count)
system.cpu.icache.ReadReq.missRate::cpu.inst     0.009266                       # miss rate for ReadReq accesses (Ratio)
system.cpu.icache.ReadReq.missRate::total     0.009266                       # miss rate for ReadReq accesses (Ratio)
system.cpu.icache.ReadReq.avgMissLatency::cpu.inst 22811.062939                       # average ReadReq miss latency ((Tick/Count))
system.cpu.icache.ReadReq.avgMissLatency::total 22811.062939                       # average ReadReq miss latency ((Tick/Count))
system.cpu.icache.ReadReq.mshrHits::cpu.inst         4294                       # number of ReadReq MSHR hits (Count)
system.cpu.icache.ReadReq.mshrHits::total         4294                       # number of ReadReq MSHR hits (Count)
system.cpu.icache.ReadReq.mshrMisses::cpu.inst        54334                       # number of ReadReq MSHR misses (Count)
system.cpu.icache.ReadReq.mshrMisses::total        54334                       # number of ReadReq MSHR misses (Count)
system.cpu.icache.ReadReq.mshrMissLatency::cpu.inst   1237688998                       # number of ReadReq MSHR miss ticks (Tick)
system.cpu.icache.ReadReq.mshrMissLatency::total   1237688998                       # number of ReadReq MSHR miss ticks (Tick)
system.cpu.icache.ReadReq.mshrMissRate::cpu.inst     0.008588                       # mshr miss rate for ReadReq accesses (Ratio)
system.cpu.icache.ReadReq.mshrMissRate::total     0.008588                       # mshr miss rate for ReadReq accesses (Ratio)
system.cpu.icache.ReadReq.avgMshrMissLatency::cpu.inst 22779.272610                       # average ReadReq mshr miss latency ((Tick/Count))
system.cpu.icache.ReadReq.avgMshrMissLatency::total 22779.272610                       # average ReadReq mshr miss latency ((Tick/Count))
system.cpu.icache.power_state.pwrStateResidencyTicks::UNDEFINED  17447629500                       # Cumulative time (in ticks) in various power states (Tick)
system.cpu.icache.tags.tagsInUse           455.133285                       # Average ticks per tags in use ((Tick/Count))
system.cpu.icache.tags.totalRefs              6322665                       # Total number of references to valid blocks. (Count)
system.cpu.icache.tags.sampledRefs              54334                       # Sample count of references to valid blocks. (Count)
system.cpu.icache.tags.avgRefs             116.366640                       # Average number of references to valid blocks. ((Count/Count))
system.cpu.icache.tags.warmupTick               77000                       # The tick when the warmup percentage was hit. (Tick)
system.cpu.icache.tags.occupancies::cpu.inst   455.133285                       # Average occupied blocks per tick, per requestor ((Count/Tick))
system.cpu.icache.tags.avgOccs::cpu.inst     0.888932                       # Average percentage of cache occupancy ((Ratio/Tick))
system.cpu.icache.tags.avgOccs::total        0.888932                       # Average percentage of cache occupancy ((Ratio/Tick))
system.cpu.icache.tags.occupanciesTaskId::1024          499                       # Occupied blocks per task id (Count)
system.cpu.icache.tags.ageTaskId_1024::0          117                       # Occupied blocks per task id, per block age (Count)
system.cpu.icache.tags.ageTaskId_1024::2           25                       # Occupied blocks per task id, per block age (Count)
system.cpu.icache.tags.ageTaskId_1024::3          188                       # Occupied blocks per task id, per block age (Count)
system.cpu.icache.tags.ageTaskId_1024::4          169                       # Occupied blocks per task id, per block age (Count)
system.cpu.icache.tags.ratioOccsTaskId::1024     0.974609                       # Ratio of occupied blocks and all blocks, per task id (Ratio)
system.cpu.icache.tags.tagAccesses           12708252                       # Number of tag accesses (Count)
system.cpu.icache.tags.dataAccesses          12708252                       # Number of data accesses (Count)
system.cpu.icache.tags.power_state.pwrStateResidencyTicks::UNDEFINED  17447629500                       # Cumulative time (in ticks) in various power states (Tick)
system.cpu.iew.idleCycles                           0                       # Number of cycles IEW is idle (Cycle)
system.cpu.iew.squashCycles                    149321                       # Number of cycles IEW is squashing (Cycle)
system.cpu.iew.blockCycles                     995446                       # Number of cycles IEW is blocking (Cycle)
system.cpu.iew.unblockCycles                  1842184                       # Number of cycles IEW is unblocking (Cycle)
system.cpu.iew.dispatchedInsts               82533422                       # Number of instructions dispatched to IQ (Count)
system.cpu.iew.dispSquashedInsts                30244                       # Number of squashed instructions skipped by dispatch (Count)
system.cpu.iew.dispLoadInsts                 11527406                       # Number of dispatched load instructions (Count)
system.cpu.iew.dispStoreInsts                 6381097                       # Number of dispatched store instructions (Count)
system.cpu.iew.dispNonSpecInsts                    20                       # Number of dispatched non-speculative instructions (Count)
system.cpu.iew.iqFullEvents                     12283                       # Number of times the IQ has become full, causing a stall (Count)
system.cpu.iew.lsqFullEvents                  1829523                       # Number of times the LSQ has become full, causing a stall (Count)
system.cpu.iew.memOrderViolationEvents           1324                       # Number of memory order violations (Count)
system.cpu.iew.predictedTakenIncorrect          72935                       # Number of branches that were predicted taken incorrectly (Count)
system.cpu.iew.predictedNotTakenIncorrect        90492                       # Number of branches that were predicted not taken incorrectly (Count)
system.cpu.iew.branchMispredicts               163427                       # Number of branch mispredicts detected at execute (Count)
system.cpu.iew.instsToCommit                 80576296                       # Cumulative count of insts sent to commit (Count)
system.cpu.iew.writebackCount                80541995                       # Cumulative count of insts written-back (Count)
system.cpu.iew.producerInst                  56774749                       # Number of instructions producing a value (Count)
system.cpu.iew.consumerInst                  95771694                       # Number of instructions consuming a value (Count)
system.cpu.iew.wbRate                        2.308107                       # Insts written-back per cycle ((Count/Cycle))
system.cpu.iew.wbFanout                      0.592813                       # Average fanout of values written-back ((Count/Count))
system.cpu.interrupts.clk_domain.clock           8000                       # Clock period in ticks (Tick)
system.cpu.itb_walker_cache.blockedCycles::no_mshrs            0                       # number of cycles access was blocked (Cycle)
system.cpu.itb_walker_cache.blockedCycles::no_targets            0                       # number of cycles access was blocked (Cycle)
system.cpu.itb_walker_cache.blockedCauses::no_mshrs            0                       # number of times access was blocked (Count)
system.cpu.itb_walker_cache.blockedCauses::no_targets            0                       # number of times access was blocked (Count)
system.cpu.itb_walker_cache.avgBlocked::no_mshrs          nan                       # average number of cycles each access was blocked ((Cycle/Count))
system.cpu.itb_walker_cache.avgBlocked::no_targets          nan                       # average number of cycles each access was blocked ((Cycle/Count))
system.cpu.itb_walker_cache.replacements            0                       # number of replacements (Count)
system.cpu.itb_walker_cache.power_state.pwrStateResidencyTicks::UNDEFINED  17447629500                       # Cumulative time (in ticks) in various power states (Tick)
system.cpu.itb_walker_cache.tags.tagsInUse            0                       # Average ticks per tags in use ((Tick/Count))
system.cpu.itb_walker_cache.tags.totalRefs            0                       # Total number of references to valid blocks. (Count)
system.cpu.itb_walker_cache.tags.sampledRefs            0                       # Sample count of references to valid blocks. (Count)
system.cpu.itb_walker_cache.tags.avgRefs          nan                       # Average number of references to valid blocks. ((Count/Count))
system.cpu.itb_walker_cache.tags.warmupTick            0                       # The tick when the warmup percentage was hit. (Tick)
system.cpu.itb_walker_cache.tags.tagAccesses            0                       # Number of tag accesses (Count)
system.cpu.itb_walker_cache.tags.dataAccesses            0                       # Number of data accesses (Count)
system.cpu.itb_walker_cache.tags.power_state.pwrStateResidencyTicks::UNDEFINED  17447629500                       # Cumulative time (in ticks) in various power states (Tick)
system.cpu.lsq0.forwLoads                     2931183                       # Number of loads that had data forwarded from stores (Count)
system.cpu.lsq0.squashedLoads                  409530                       # Number of loads squashed (Count)
system.cpu.lsq0.ignoredResponses                  108                       # Number of memory responses ignored because the instruction is squashed (Count)
system.cpu.lsq0.memOrderViolation                1324                       # Number of memory ordering violations (Count)
system.cpu.lsq0.squashedStores                 318073                       # Number of stores squashed (Count)
system.cpu.lsq0.rescheduledLoads                    1                       # Number of loads that were rescheduled (Count)
system.cpu.lsq0.blockedByCache                   2031                       # Number of times an access to memory failed due to the cache being blocked (Count)
system.cpu.lsq0.loadToUse::samples           11117876                       # Distribution of cycle latency between the first time a load is issued and its completion (Unspecified)
system.cpu.lsq0.loadToUse::mean              6.191710                       # Distribution of cycle latency between the first time a load is issued and its completion (Unspecified)
system.cpu.lsq0.loadToUse::stdev            20.444779                       # Distribution of cycle latency between the first time a load is issued and its completion (Unspecified)
system.cpu.lsq0.loadToUse::0-9               10765927     96.83%     96.83% # Distribution of cycle latency between the first time a load is issued and its completion (Unspecified)
system.cpu.lsq0.loadToUse::10-19                  918      0.01%     96.84% # Distribution of cycle latency between the first time a load is issued and its completion (Unspecified)
system.cpu.lsq0.loadToUse::20-29                 1257      0.01%     96.85% # Distribution of cycle latency between the first time a load is issued and its completion (Unspecified)
system.cpu.lsq0.loadToUse::30-39                 1494      0.01%     96.87% # Distribution of cycle latency between the first time a load is issued and its completion (Unspecified)
system.cpu.lsq0.loadToUse::40-49                14329      0.13%     97.00% # Distribution of cycle latency between the first time a load is issued and its completion (Unspecified)
system.cpu.lsq0.loadToUse::50-59                17285      0.16%     97.15% # Distribution of cycle latency between the first time a load is issued and its completion (Unspecified)
system.cpu.lsq0.loadToUse::60-69                  629      0.01%     97.16% # Distribution of cycle latency between the first time a load is issued and its completion (Unspecified)
system.cpu.lsq0.loadToUse::70-79                  741      0.01%     97.16% # Distribution of cycle latency between the first time a load is issued and its completion (Unspecified)
[...]
system.mem_ctrls.dram.bwWrite::total         58671581                       # Write bandwidth from this memory ((Byte/Second))
system.mem_ctrls.dram.bwTotal::writebacks     58671581                       # Total bandwidth to/from this memory ((Byte/Second))
system.mem_ctrls.dram.bwTotal::cpu.inst     199303636                       # Total bandwidth to/from this memory ((Byte/Second))
system.mem_ctrls.dram.bwTotal::cpu.data    1087249130                       # Total bandwidth to/from this memory ((Byte/Second))
system.mem_ctrls.dram.bwTotal::total       1345224347                       # Total bandwidth to/from this memory ((Byte/Second))
system.mem_ctrls.dram.readBursts               288665                       # Number of DRAM read bursts (Count)
system.mem_ctrls.dram.writeBursts                8506                       # Number of DRAM write bursts (Count)
system.mem_ctrls.dram.perBankRdBursts::0        11679                       # Per bank write bursts (Count)
system.mem_ctrls.dram.perBankRdBursts::1        66263                       # Per bank write bursts (Count)
system.mem_ctrls.dram.perBankRdBursts::2        66149                       # Per bank write bursts (Count)
system.mem_ctrls.dram.perBankRdBursts::3        70706                       # Per bank write bursts (Count)
system.mem_ctrls.dram.perBankRdBursts::4        55955                       # Per bank write bursts (Count)
system.mem_ctrls.dram.perBankRdBursts::5          872                       # Per bank write bursts (Count)
system.mem_ctrls.dram.perBankRdBursts::6          952                       # Per bank write bursts (Count)
system.mem_ctrls.dram.perBankRdBursts::7         1124                       # Per bank write bursts (Count)
system.mem_ctrls.dram.perBankRdBursts::8         1938                       # Per bank write bursts (Count)
system.mem_ctrls.dram.perBankRdBursts::9          766                       # Per bank write bursts (Count)
system.mem_ctrls.dram.perBankRdBursts::10          655                       # Per bank write bursts (Count)
system.mem_ctrls.dram.perBankRdBursts::11         4689                       # Per bank write bursts (Count)
system.mem_ctrls.dram.perBankRdBursts::12          946                       # Per bank write bursts (Count)
system.mem_ctrls.dram.perBankRdBursts::13         2015                       # Per bank write bursts (Count)
system.mem_ctrls.dram.perBankRdBursts::14         1972                       # Per bank write bursts (Count)
system.mem_ctrls.dram.perBankRdBursts::15         1984                       # Per bank write bursts (Count)
system.mem_ctrls.dram.perBankWrBursts::0          549                       # Per bank write bursts (Count)
system.mem_ctrls.dram.perBankWrBursts::1          562                       # Per bank write bursts (Count)
system.mem_ctrls.dram.perBankWrBursts::2          548                       # Per bank write bursts (Count)
system.mem_ctrls.dram.perBankWrBursts::3          574                       # Per bank write bursts (Count)
system.mem_ctrls.dram.perBankWrBursts::4          541                       # Per bank write bursts (Count)
system.mem_ctrls.dram.perBankWrBursts::5          536                       # Per bank write bursts (Count)
system.mem_ctrls.dram.perBankWrBursts::6          546                       # Per bank write bursts (Count)
system.mem_ctrls.dram.perBankWrBursts::7          582                       # Per bank write bursts (Count)
system.mem_ctrls.dram.perBankWrBursts::8          573                       # Per bank write bursts (Count)
system.mem_ctrls.dram.perBankWrBursts::9          538                       # Per bank write bursts (Count)
system.mem_ctrls.dram.perBankWrBursts::10          523                       # Per bank write bursts (Count)
system.mem_ctrls.dram.perBankWrBursts::11          338                       # Per bank write bursts (Count)
system.mem_ctrls.dram.perBankWrBursts::12          462                       # Per bank write bursts (Count)
system.mem_ctrls.dram.perBankWrBursts::13          561                       # Per bank write bursts (Count)
system.mem_ctrls.dram.perBankWrBursts::14          536                       # Per bank write bursts (Count)
system.mem_ctrls.dram.perBankWrBursts::15          537                       # Per bank write bursts (Count)
system.mem_ctrls.dram.totQLat              1272609000                       # Total ticks spent queuing (Tick)
system.mem_ctrls.dram.totBusLat            1443325000                       # Total ticks spent in databus transfers (Tick)
system.mem_ctrls.dram.totMemAccLat         6685077750                       # Total ticks spent from burst creation until serviced by the DRAM (Tick)
system.mem_ctrls.dram.avgQLat                 4408.60                       # Average queueing delay per DRAM burst ((Tick/Count))
system.mem_ctrls.dram.avgBusLat               5000.00                       # Average bus latency per DRAM burst ((Tick/Count))
system.mem_ctrls.dram.avgMemAccLat           23158.60                       # Average memory access latency per DRAM burst ((Tick/Count))
system.mem_ctrls.dram.readRowHits              264438                       # Number of row buffer hits during reads (Count)
system.mem_ctrls.dram.writeRowHits               7404                       # Number of row buffer hits during writes (Count)
system.mem_ctrls.dram.readRowHitRate            91.61                       # Row buffer hit rate for reads (Ratio)
system.mem_ctrls.dram.writeRowHitRate           87.04                       # Row buffer hit rate for writes (Ratio)
system.mem_ctrls.dram.bytesPerActivate::samples        25316                       # Bytes accessed per row activation (Byte)
system.mem_ctrls.dram.bytesPerActivate::mean   751.178385                       # Bytes accessed per row activation (Byte)
system.mem_ctrls.dram.bytesPerActivate::gmean   561.961825                       # Bytes accessed per row activation (Byte)
system.mem_ctrls.dram.bytesPerActivate::stdev   379.756888                       # Bytes accessed per row activation (Byte)
system.mem_ctrls.dram.bytesPerActivate::0-127         2837     11.21%     11.21% # Bytes accessed per row activation (Byte)
system.mem_ctrls.dram.bytesPerActivate::128-255         1502      5.93%     17.14% # Bytes accessed per row activation (Byte)
system.mem_ctrls.dram.bytesPerActivate::256-383         1424      5.62%     22.76% # Bytes accessed per row activation (Byte)
system.mem_ctrls.dram.bytesPerActivate::384-511         2102      8.30%     31.07% # Bytes accessed per row activation (Byte)
system.mem_ctrls.dram.bytesPerActivate::512-639          375      1.48%     32.55% # Bytes accessed per row activation (Byte)
system.mem_ctrls.dram.bytesPerActivate::640-767          509      2.01%     34.56% # Bytes accessed per row activation (Byte)
system.mem_ctrls.dram.bytesPerActivate::768-895          425      1.68%     36.24% # Bytes accessed per row activation (Byte)
system.mem_ctrls.dram.bytesPerActivate::896-1023          520      2.05%     38.29% # Bytes accessed per row activation (Byte)
system.mem_ctrls.dram.bytesPerActivate::1024-1151        15622     61.71%    100.00% # Bytes accessed per row activation (Byte)
system.mem_ctrls.dram.bytesPerActivate::total        25316                       # Bytes accessed per row activation (Byte)
system.mem_ctrls.dram.bytesRead              18474560                       # Total bytes read (Byte)
system.mem_ctrls.dram.bytesWritten             544384                       # Total bytes written (Byte)
system.mem_ctrls.dram.avgRdBW             1058.857881                       # Average DRAM read bandwidth in MiBytes/s ((Byte/Second))
system.mem_ctrls.dram.avgWrBW               31.201029                       # Average DRAM write bandwidth in MiBytes/s ((Byte/Second))
system.mem_ctrls.dram.peakBW                 12800.00                       # Theoretical peak bandwidth in MiByte/s ((Byte/Second))
system.mem_ctrls.dram.busUtil                    8.52                       # Data bus utilization in percentage (Ratio)
system.mem_ctrls.dram.busUtilRead                8.27                       # Data bus utilization in percentage for reads (Ratio)
system.mem_ctrls.dram.busUtilWrite               0.24                       # Data bus utilization in percentage for writes (Ratio)
system.mem_ctrls.dram.pageHitRate               91.48                       # Row buffer hit rate, read and write combined (Ratio)
system.mem_ctrls.dram.power_state.pwrStateResidencyTicks::UNDEFINED  17447629500                       # Cumulative time (in ticks) in various power states (Tick)
system.mem_ctrls.dram.rank0.actEnergy       149954280                       # Energy for activate commands per rank (pJ) (Joule)
system.mem_ctrls.dram.rank0.preEnergy        79676025                       # Energy for precharge commands per rank (pJ) (Joule)
system.mem_ctrls.dram.rank0.readEnergy     1954218000                       # Energy for read commands per rank (pJ) (Joule)
system.mem_ctrls.dram.rank0.writeEnergy      23166360                       # Energy for write commands per rank (pJ) (Joule)
system.mem_ctrls.dram.rank0.refreshEnergy 1376793600.000000                       # Energy for refresh commands per rank (pJ) (Joule)
system.mem_ctrls.dram.rank0.actBackEnergy   6899270310                       # Energy for active background per rank (pJ) (Joule)
system.mem_ctrls.dram.rank0.preBackEnergy    889978080                       # Energy for precharge background per rank (pJ) (Joule)
system.mem_ctrls.dram.rank0.actPowerDownEnergy            0                       # Energy for active power-down per rank (pJ) (Joule)
system.mem_ctrls.dram.rank0.prePowerDownEnergy            0                       # Energy for precharge power-down per rank (pJ) (Joule)
system.mem_ctrls.dram.rank0.selfRefreshEnergy            0                       # Energy for self refresh per rank (pJ) (Joule)
system.mem_ctrls.dram.rank0.totalEnergy   11373056655                       # Total energy per rank (pJ) (Joule)
system.mem_ctrls.dram.rank0.averagePower   651.839647                       # Core power per rank (mW) (Watt)
system.mem_ctrls.dram.rank0.totalIdleTime            0                       # Total Idle time Per DRAM Rank (Tick)
system.mem_ctrls.dram.rank0.pwrStateTime::IDLE   2255315500                       # Time in different power states (Tick)
system.mem_ctrls.dram.rank0.pwrStateTime::REF    582400000                       # Time in different power states (Tick)
system.mem_ctrls.dram.rank0.pwrStateTime::SREF            0                       # Time in different power states (Tick)
system.mem_ctrls.dram.rank0.pwrStateTime::PRE_PDN            0                       # Time in different power states (Tick)
system.mem_ctrls.dram.rank0.pwrStateTime::ACT  14609914000                       # Time in different power states (Tick)
system.mem_ctrls.dram.rank0.pwrStateTime::ACT_PDN            0                       # Time in different power states (Tick)
system.mem_ctrls.dram.rank1.actEnergy        30894780                       # Energy for activate commands per rank (pJ) (Joule)
system.mem_ctrls.dram.rank1.preEnergy        16398195                       # Energy for precharge commands per rank (pJ) (Joule)
system.mem_ctrls.dram.rank1.readEnergy      106850100                       # Energy for read commands per rank (pJ) (Joule)
system.mem_ctrls.dram.rank1.writeEnergy      21234960                       # Energy for write commands per rank (pJ) (Joule)
system.mem_ctrls.dram.rank1.refreshEnergy 1376793600.000000                       # Energy for refresh commands per rank (pJ) (Joule)
system.mem_ctrls.dram.rank1.actBackEnergy   6464182470                       # Energy for active background per rank (pJ) (Joule)
system.mem_ctrls.dram.rank1.preBackEnergy   1256367840                       # Energy for precharge background per rank (pJ) (Joule)
system.mem_ctrls.dram.rank1.actPowerDownEnergy            0                       # Energy for active power-down per rank (pJ) (Joule)
system.mem_ctrls.dram.rank1.prePowerDownEnergy            0                       # Energy for precharge power-down per rank (pJ) (Joule)
system.mem_ctrls.dram.rank1.selfRefreshEnergy            0                       # Energy for self refresh per rank (pJ) (Joule)
system.mem_ctrls.dram.rank1.totalEnergy    9272721945                       # Total energy per rank (pJ) (Joule)
system.mem_ctrls.dram.rank1.averagePower   531.460273                       # Core power per rank (mW) (Watt)
system.mem_ctrls.dram.rank1.totalIdleTime            0                       # Total Idle time Per DRAM Rank (Tick)
system.mem_ctrls.dram.rank1.pwrStateTime::IDLE   3205360750                       # Time in different power states (Tick)
system.mem_ctrls.dram.rank1.pwrStateTime::REF    582400000                       # Time in different power states (Tick)
system.mem_ctrls.dram.rank1.pwrStateTime::SREF            0                       # Time in different power states (Tick)
system.mem_ctrls.dram.rank1.pwrStateTime::PRE_PDN            0                       # Time in different power states (Tick)
system.mem_ctrls.dram.rank1.pwrStateTime::ACT  13659868750                       # Time in different power states (Tick)
system.mem_ctrls.dram.rank1.pwrStateTime::ACT_PDN            0                       # Time in different power states (Tick)
system.mem_ctrls.power_state.pwrStateResidencyTicks::UNDEFINED  17447629500                       # Cumulative time (in ticks) in various power states (Tick)
system.membus.transDist::ReadResp              342676                       # Transaction distribution (Count)
system.membus.transDist::WritebackDirty         15995                       # Transaction distribution (Count)
system.membus.transDist::WritebackClean         53835                       # Transaction distribution (Count)
system.membus.transDist::CleanEvict            280154                       # Transaction distribution (Count)
system.membus.transDist::ReadExReq               8063                       # Transaction distribution (Count)
system.membus.transDist::ReadExResp              8063                       # Transaction distribution (Count)
system.membus.transDist::ReadCleanReq           54334                       # Transaction distribution (Count)
system.membus.transDist::ReadSharedReq         288342                       # Transaction distribution (Count)
system.membus.pktCount_system.cpu.icache.mem_side_port::system.mem_ctrls.port       162503                       # Packet count per connected requestor and responder (Count)
system.membus.pktCount_system.cpu.icache.mem_side_port::total       162503                       # Packet count per connected requestor and responder (Count)
system.membus.pktCount_system.cpu.dcache.mem_side_port::system.mem_ctrls.port       888959                       # Packet count per connected requestor and responder (Count)
system.membus.pktCount_system.cpu.dcache.mem_side_port::total       888959                       # Packet count per connected requestor and responder (Count)
system.membus.pktCount::total                 1051462                       # Packet count per connected requestor and responder (Count)
system.membus.pktSize_system.cpu.icache.mem_side_port::system.mem_ctrls.port      6922816                       # Cumulative packet size per connected requestor and responder (Byte)
system.membus.pktSize_system.cpu.icache.mem_side_port::total      6922816                       # Cumulative packet size per connected requestor and responder (Byte)
system.membus.pktSize_system.cpu.dcache.mem_side_port::system.mem_ctrls.port     19993600                       # Cumulative packet size per connected requestor and responder (Byte)
system.membus.pktSize_system.cpu.dcache.mem_side_port::total     19993600                       # Cumulative packet size per connected requestor and responder (Byte)
system.membus.pktSize::total                 26916416                       # Cumulative packet size per connected requestor and responder (Byte)
system.membus.snoops                                0                       # Total snoops (Count)
system.membus.snoopTraffic                          0                       # Total snoop traffic (Byte)
system.membus.snoopFanout::samples             350739                       # Request fanout histogram (Count)
system.membus.snoopFanout::mean              0.000011                       # Request fanout histogram (Count)
system.membus.snoopFanout::stdev             0.003377                       # Request fanout histogram (Count)
system.membus.snoopFanout::underflows               0      0.00%      0.00% # Request fanout histogram (Count)
system.membus.snoopFanout::0                   350735    100.00%    100.00% # Request fanout histogram (Count)
system.membus.snoopFanout::1                        4      0.00%    100.00% # Request fanout histogram (Count)
system.membus.snoopFanout::2                        0      0.00%    100.00% # Request fanout histogram (Count)
system.membus.snoopFanout::3                        0      0.00%    100.00% # Request fanout histogram (Count)
system.membus.snoopFanout::4                        0      0.00%    100.00% # Request fanout histogram (Count)
system.membus.snoopFanout::overflows                0      0.00%    100.00% # Request fanout histogram (Count)
system.membus.snoopFanout::min_value                0                       # Request fanout histogram (Count)
system.membus.snoopFanout::max_value                1                       # Request fanout histogram (Count)
system.membus.snoopFanout::total               350739                       # Request fanout histogram (Count)
system.membus.power_state.pwrStateResidencyTicks::UNDEFINED  17447629500                       # Cumulative time (in ticks) in various power states (Tick)
system.membus.reqLayer2.occupancy          1053452500                       # Layer occupancy (ticks) (Tick)
system.membus.reqLayer2.utilization               0.1                       # Layer utilization (Ratio)
system.membus.respLayer1.occupancy          272061750                       # Layer occupancy (ticks) (Tick)
system.membus.respLayer1.utilization              0.0                       # Layer utilization (Ratio)
system.membus.respLayer2.occupancy         1556666500                       # Layer occupancy (ticks) (Tick)
system.membus.respLayer2.utilization              0.1                       # Layer utilization (Ratio)
system.membus.snoop_filter.totRequests         700723                       # Total number of requests made to the snoop filter. (Count)
system.membus.snoop_filter.hitSingleRequests       349984                       # Number of requests hitting in the snoop filter with a single holder of the requested data. (Count)
system.membus.snoop_filter.hitMultiRequests            4                       # Number of requests hitting in the snoop filter with multiple (>1) holders of the requested data. (Count)
system.membus.snoop_filter.totSnoops                0                       # Total number of snoops made to the snoop filter. (Count)
system.membus.snoop_filter.hitSingleSnoops            0                       # Number of snoops hitting in the snoop filter with a single holder of the requested data. (Count)
system.membus.snoop_filter.hitMultiSnoops            0                       # Number of snoops hitting in the snoop filter with multiple (>1) holders of the requested data. (Count)
system.voltage_domain.voltage                       1                       # Voltage in Volts (Volt)
system.workload.inst.arm                            0                       # number of arm instructions executed (Count)
system.workload.inst.quiesce                        0                       # number of quiesce instructions executed (Count)

---------- End Simulation Statistics   ----------
