
---------- Begin Simulation Statistics ----------
simSeconds                                   0.022118                       # Number of seconds simulated (Second)
simTicks                                  22118086500                       # Number of ticks simulated (Tick)
finalTick                                 22118086500                       # Number of ticks from beginning of simulation (restored from checkpoints and never reset) (Tick)
simFreq                                  1000000000000                       # The number of ticks per simulated second ((Tick/Second))
hostSeconds                                     96.15                       # Real time elapsed on the host (Second)
hostTickRate                                230047759                       # The number of ticks simulated per host second (ticks/s) ((Tick/Second))
hostMemory                                     664880                       # Number of bytes of host memory used (Byte)
simInsts                                     41289468                       # Number of instructions simulated (Count)
simOps                                       78315814                       # Number of ops (including micro ops) simulated (Count)
hostInstRate                                   429447                       # Simulator instruction rate (inst/s) ((Count/Second))
hostOpRate                                     814554                       # Simulator op (including micro ops) rate (op/s) ((Count/Second))
system.clk_domain.clock                          1000                       # Clock period in ticks (Tick)
system.cpu.numCycles                         44236174                       # Number of cpu cycles simulated (Cycle)
system.cpu.numWorkItemsStarted                      0                       # Number of work items this cpu started (Count)
system.cpu.numWorkItemsCompleted                    0                       # Number of work items this cpu completed (Count)
system.cpu.instsAdded                        82683887                       # Number of instructions added to the IQ (excludes non-spec) (Count)
system.cpu.nonSpecInstsAdded                       59                       # Number of non-speculative instructions added to the IQ (Count)
system.cpu.instsIssued                       81087746                       # Number of instructions issued (Count)
system.cpu.squashedInstsIssued                  33944                       # Number of squashed instructions issued (Count)
system.cpu.squashedInstsExamined              4368126                       # Number of squashed instructions iterated over during squash; mainly for profiling (Count)
system.cpu.squashedOperandsExamined           6793967                       # Number of squashed operands that are examined and possibly removed from graph (Count)
system.cpu.squashedNonSpecRemoved                  41                       # Number of squashed non-spec instructions that were removed (Count)
system.cpu.numIssuedDist::samples            43463486                       # Number of insts issued each cycle (Count)
system.cpu.numIssuedDist::mean               1.865652                       # Number of insts issued each cycle (Count)
system.cpu.numIssuedDist::stdev              2.252775                       # Number of insts issued each cycle (Count)
system.cpu.numIssuedDist::underflows                0      0.00%      0.00% # Number of insts issued each cycle (Count)
system.cpu.numIssuedDist::0                  20090014     46.22%     46.22% # Number of insts issued each cycle (Count)
system.cpu.numIssuedDist::1                   4178254      9.61%     55.84% # Number of insts issued each cycle (Count)
system.cpu.numIssuedDist::2                   5198550     11.96%     67.80% # Number of insts issued each cycle (Count)
system.cpu.numIssuedDist::3                   3538032      8.14%     75.94% # Number of insts issued each cycle (Count)
system.cpu.numIssuedDist::4                   3471122      7.99%     83.92% # Number of insts issued each cycle (Count)
system.cpu.numIssuedDist::5                   2633320      6.06%     89.98% # Number of insts issued each cycle (Count)
system.cpu.numIssuedDist::6                   2399801      5.52%     95.50% # Number of insts issued each cycle (Count)
system.cpu.numIssuedDist::7                   1186742      2.73%     98.23% # Number of insts issued each cycle (Count)
system.cpu.numIssuedDist::8                    767651      1.77%    100.00% # Number of insts issued each cycle (Count)
system.cpu.numIssuedDist::overflows                 0      0.00%    100.00% # Number of insts issued each cycle (Count)
system.cpu.numIssuedDist::min_value                 0                       # Number of insts issued each cycle (Count)
system.cpu.numIssuedDist::max_value                 8                       # Number of insts issued each cycle (Count)
system.cpu.numIssuedDist::total              43463486                       # Number of insts issued each cycle (Count)
system.cpu.statFuBusy::No_OpClass                   0      0.00%      0.00% # attempts to use FU when none available (Count)
system.cpu.statFuBusy::IntAlu                 1057640     81.55%     81.55% # attempts to use FU when none available (Count)
system.cpu.statFuBusy::IntMult                      0      0.00%     81.55% # attempts to use FU when none available (Count)
system.cpu.statFuBusy::IntDiv                       0      0.00%     81.55% # attempts to use FU when none available (Count)
system.cpu.statFuBusy::FloatAdd                     0      0.00%     81.55% # attempts to use FU when none available (Count)
system.cpu.statFuBusy::FloatCmp                     0      0.00%     81.55% # attempts to use FU when none available (Count)
system.cpu.statFuBusy::FloatCvt                     0      0.00%     81.55% # attempts to use FU when none available (Count)
system.cpu.statFuBusy::FloatMult                    0      0.00%     81.55% # attempts to use FU when none available (Count)
system.cpu.statFuBusy::FloatMultAcc                 0      0.00%     81.55% # attempts to use FU when none available (Count)
system.cpu.statFuBusy::FloatDiv                     0      0.00%     81.55% # attempts to use FU when none available (Count)
system.cpu.statFuBusy::FloatMisc                    0      0.00%     81.55% # attempts to use FU when none available (Count)
system.cpu.statFuBusy::FloatSqrt                    0      0.00%     81.55% # attempts to use FU when none available (Count)
system.cpu.statFuBusy::SimdAdd                      0      0.00%     81.55% # attempts to use FU when none available (Count)
system.cpu.statFuBusy::SimdAddAcc                   0      0.00%     81.55% # attempts to use FU when none available (Count)
system.cpu.statFuBusy::SimdAlu                  17308      1.33%     82.89% # attempts to use FU when none available (Count)
system.cpu.statFuBusy::SimdCmp                      0      0.00%     82.89% # attempts to use FU when none available (Count)
system.cpu.statFuBusy::SimdCvt                    127      0.01%     82.89% # attempts to use FU when none available (Count)
system.cpu.statFuBusy::SimdMisc                  8478      0.65%     83.55% # attempts to use FU when none available (Count)
system.cpu.statFuBusy::SimdMult                     0      0.00%     83.55% # attempts to use FU when none available (Count)
system.cpu.statFuBusy::SimdMultAcc                  0      0.00%     83.55% # attempts to use FU when none available (Count)
system.cpu.statFuBusy::SimdShift                    0      0.00%     83.55% # attempts to use FU when none available (Count)
system.cpu.statFuBusy::SimdShiftAcc                 0      0.00%     83.55% # attempts to use FU when none available (Count)
system.cpu.statFuBusy::SimdDiv                      0      0.00%     83.55% # attempts to use FU when none available (Count)
system.cpu.statFuBusy::SimdSqrt                     0      0.00%     83.55% # attempts to use FU when none available (Count)
system.cpu.statFuBusy::SimdFloatAdd                 0      0.00%     83.55% # attempts to use FU when none available (Count)
system.cpu.statFuBusy::SimdFloatAlu                 0      0.00%     83.55% # attempts to use FU when none available (Count)
system.cpu.statFuBusy::SimdFloatCmp                 0      0.00%     83.55% # attempts to use FU when none available (Count)
system.cpu.statFuBusy::SimdFloatCvt                 0      0.00%     83.55% # attempts to use FU when none available (Count)
system.cpu.statFuBusy::SimdFloatDiv                 0      0.00%     83.55% # attempts to use FU when none available (Count)
system.cpu.statFuBusy::SimdFloatMisc                0      0.00%     83.55% # attempts to use FU when none available (Count)
system.cpu.statFuBusy::SimdFloatMult                0      0.00%     83.55% # attempts to use FU when none available (Count)
system.cpu.statFuBusy::SimdFloatMultAcc             0      0.00%     83.55% # attempts to use FU when none available (Count)
system.cpu.statFuBusy::SimdFloatSqrt                0      0.00%     83.55% # attempts to use FU when none available (Count)
system.cpu.statFuBusy::SimdReduceAdd                0      0.00%     83.55% # attempts to use FU when none available (Count)
system.cpu.statFuBusy::SimdReduceAlu                0      0.00%     83.55% # attempts to use FU when none available (Count)
system.cpu.statFuBusy::SimdReduceCmp                0      0.00%     83.55% # attempts to use FU when none available (Count)
system.cpu.statFuBusy::SimdFloatReduceAdd            0      0.00%     83.55% # attempts to use FU when none available (Count)
system.cpu.statFuBusy::SimdFloatReduceCmp            0      0.00%     83.55% # attempts to use FU when none available (Count)
system.cpu.statFuBusy::SimdAes                      0      0.00%     83.55% # attempts to use FU when none available (Count)
system.cpu.statFuBusy::SimdAesMix                   0      0.00%     83.55% # attempts to use FU when none available (Count)
system.cpu.statFuBusy::SimdSha1Hash                 0      0.00%     83.55% # attempts to use FU when none available (Count)
system.cpu.statFuBusy::SimdSha1Hash2                0      0.00%     83.55% # attempts to use FU when none available (Count)
system.cpu.statFuBusy::SimdSha256Hash               0      0.00%     83.55% # attempts to use FU when none available (Count)
system.cpu.statFuBusy::SimdSha256Hash2              0      0.00%     83.55% # attempts to use FU when none available (Count)
system.cpu.statFuBusy::SimdShaSigma2                0      0.00%     83.55% # attempts to use FU when none available (Count)
system.cpu.statFuBusy::SimdShaSigma3                0      0.00%     83.55% # attempts to use FU when none available (Count)
system.cpu.statFuBusy::SimdPredAlu                  0      0.00%     83.55% # attempts to use FU when none available (Count)
system.cpu.statFuBusy::MemRead                 162565     12.53%     96.08% # attempts to use FU when none available (Count)
system.cpu.statFuBusy::MemWrite                 25593      1.97%     98.06% # attempts to use FU when none available (Count)
system.cpu.statFuBusy::FloatMemRead             12899      0.99%     99.05% # attempts to use FU when none available (Count)
system.cpu.statFuBusy::FloatMemWrite            12305      0.95%    100.00% # attempts to use FU when none available (Count)
system.cpu.statFuBusy::IprAccess                    0      0.00%    100.00% # attempts to use FU when none available (Count)
system.cpu.statFuBusy::InstPrefetch                 0      0.00%    100.00% # attempts to use FU when none available (Count)
system.cpu.statIssuedInstType_0::No_OpClass       870951      1.07%      1.07% # Number of instructions issued per FU type, per thread (Count)
system.cpu.statIssuedInstType_0::IntAlu      59307807     73.14%     74.21% # Number of instructions issued per FU type, per thread (Count)
system.cpu.statIssuedInstType_0::IntMult        89550      0.11%     74.32% # Number of instructions issued per FU type, per thread (Count)
system.cpu.statIssuedInstType_0::IntDiv        910411      1.12%     75.45% # Number of instructions issued per FU type, per thread (Count)
system.cpu.statIssuedInstType_0::FloatAdd       895145      1.10%     76.55% # Number of instructions issued per FU type, per thread (Count)
system.cpu.statIssuedInstType_0::FloatCmp            0      0.00%     76.55% # Number of instructions issued per FU type, per thread (Count)
system.cpu.statIssuedInstType_0::FloatCvt            0      0.00%     76.55% # Number of instructions issued per FU type, per thread (Count)
system.cpu.statIssuedInstType_0::FloatMult            0      0.00%     76.55% # Number of instructions issued per FU type, per thread (Count)
system.cpu.statIssuedInstType_0::FloatMultAcc            0      0.00%     76.55% # Number of instructions issued per FU type, per thread (Count)
system.cpu.statIssuedInstType_0::FloatDiv            0      0.00%     76.55% # Number of instructions issued per FU type, per thread (Count)
system.cpu.statIssuedInstType_0::FloatMisc            0      0.00%     76.55% # Number of instructions issued per FU type, per thread (Count)
system.cpu.statIssuedInstType_0::FloatSqrt            0      0.00%     76.55% # Number of instructions issued per FU type, per thread (Count)
system.cpu.statIssuedInstType_0::SimdAdd            0      0.00%     76.55% # Number of instructions issued per FU type, per thread (Count)
system.cpu.statIssuedInstType_0::SimdAddAcc            0      0.00%     76.55% # Number of instructions issued per FU type, per thread (Count)
system.cpu.statIssuedInstType_0::SimdAlu       288790      0.36%     76.91% # Number of instructions issued per FU type, per thread (Count)
system.cpu.statIssuedInstType_0::SimdCmp          336      0.00%     76.91% # Number of instructions issued per FU type, per thread (Count)
system.cpu.statIssuedInstType_0::SimdCvt       164803      0.20%     77.11% # Number of instructions issued per FU type, per thread (Count)
system.cpu.statIssuedInstType_0::SimdMisc       260193      0.32%     77.43% # Number of instructions issued per FU type, per thread (Count)
system.cpu.statIssuedInstType_0::SimdMult            0      0.00%     77.43% # Number of instructions issued per FU type, per thread (Count)
system.cpu.statIssuedInstType_0::SimdMultAcc            0      0.00%     77.43% # Number of instructions issued per FU type, per thread (Count)
system.cpu.statIssuedInstType_0::SimdShift            0      0.00%     77.43% # Number of instructions issued per FU type, per thread (Count)
system.cpu.statIssuedInstType_0::SimdShiftAcc            0      0.00%     77.43% # Number of instructions issued per FU type, per thread (Count)
system.cpu.statIssuedInstType_0::SimdDiv            0      0.00%     77.43% # Number of instructions issued per FU type, per thread (Count)
system.cpu.statIssuedInstType_0::SimdSqrt            0      0.00%     77.43% # Number of instructions issued per FU type, per thread (Count)
system.cpu.statIssuedInstType_0::SimdFloatAdd       278545      0.34%     77.78% # Number of instructions issued per FU type, per thread (Count)
system.cpu.statIssuedInstType_0::SimdFloatAlu            0      0.00%     77.78% # Number of instructions issued per FU type, per thread (Count)
system.cpu.statIssuedInstType_0::SimdFloatCmp            0      0.00%     77.78% # Number of instructions issued per FU type, per thread (Count)
system.cpu.statIssuedInstType_0::SimdFloatCvt        16388      0.02%     77.80% # Number of instructions issued per FU type, per thread (Count)
system.cpu.statIssuedInstType_0::SimdFloatDiv            0      0.00%     77.80% # Number of instructions issued per FU type, per thread (Count)
system.cpu.statIssuedInstType_0::SimdFloatMisc            0      0.00%     77.80% # Number of instructions issued per FU type, per thread (Count)
system.cpu.statIssuedInstType_0::SimdFloatMult       262144      0.32%     78.12% # Number of instructions issued per FU type, per thread (Count)
system.cpu.statIssuedInstType_0::SimdFloatMultAcc            0      0.00%     78.12% # Number of instructions issued per FU type, per thread (Count)
system.cpu.statIssuedInstType_0::SimdFloatSqrt            0      0.00%     78.12% # Number of instructions issued per FU type, per thread (Count)
system.cpu.statIssuedInstType_0::SimdReduceAdd            0      0.00%     78.12% # Number of instructions issued per FU type, per thread (Count)
system.cpu.statIssuedInstType_0::SimdReduceAlu            0      0.00%     78.12% # Number of instructions issued per FU type, per thread (Count)
system.cpu.statIssuedInstType_0::SimdReduceCmp            0      0.00%     78.12% # Number of instructions issued per FU type, per thread (Count)
system.cpu.statIssuedInstType_0::SimdFloatReduceAdd            0      0.00%     78.12% # Number of instructions issued per FU type, per thread (Count)
system.cpu.statIssuedInstType_0::SimdFloatReduceCmp            0      0.00%     78.12% # Number of instructions issued per FU type, per thread (Count)
system.cpu.statIssuedInstType_0::SimdAes            0      0.00%     78.12% # Number of instructions issued per FU type, per thread (Count)
system.cpu.statIssuedInstType_0::SimdAesMix            0      0.00%     78.12% # Number of instructions issued per FU type, per thread (Count)
system.cpu.statIssuedInstType_0::SimdSha1Hash            0      0.00%     78.12% # Number of instructions issued per FU type, per thread (Count)
system.cpu.statIssuedInstType_0::SimdSha1Hash2            0      0.00%     78.12% # Number of instructions issued per FU type, per thread (Count)
system.cpu.statIssuedInstType_0::SimdSha256Hash            0      0.00%     78.12% # Number of instructions issued per FU type, per thread (Count)
system.cpu.statIssuedInstType_0::SimdSha256Hash2            0      0.00%     78.12% # Number of instructions issued per FU type, per thread (Count)
system.cpu.statIssuedInstType_0::SimdShaSigma2            0      0.00%     78.12% # Number of instructions issued per FU type, per thread (Count)
system.cpu.statIssuedInstType_0::SimdShaSigma3            0      0.00%     78.12% # Number of instructions issued per FU type, per thread (Count)
system.cpu.statIssuedInstType_0::SimdPredAlu            0      0.00%     78.12% # Number of instructions issued per FU type, per thread (Count)
system.cpu.statIssuedInstType_0::MemRead     10164747     12.54%     90.65% # Number of instructions issued per FU type, per thread (Count)
system.cpu.statIssuedInstType_0::MemWrite      5460151      6.73%     97.39% # Number of instructions issued per FU type, per thread (Count)
system.cpu.statIssuedInstType_0::FloatMemRead      1344533      1.66%     99.05% # Number of instructions issued per FU type, per thread (Count)
system.cpu.statIssuedInstType_0::FloatMemWrite       773252      0.95%    100.00% # Number of instructions issued per FU type, per thread (Count)
system.cpu.statIssuedInstType_0::IprAccess            0      0.00%    100.00% # Number of instructions issued per FU type, per thread (Count)
system.cpu.statIssuedInstType_0::InstPrefetch            0      0.00%    100.00% # Number of instructions issued per FU type, per thread (Count)
system.cpu.statIssuedInstType_0::total       81087746                       # Number of instructions issued per FU type, per thread (Count)
system.cpu.issueRate                         1.833064                       # Inst issue rate ((Count/Cycle))
system.cpu.fuBusy                             1296915                       # FU busy when requested (Count)
system.cpu.fuBusyRate                        0.015994                       # FU busy rate (busy events/executed inst) ((Count/Count))
system.cpu.intInstQueueReads                198268126                       # Number of integer instruction queue reads (Count)
system.cpu.intInstQueueWrites                82602261                       # Number of integer instruction queue writes (Count)
system.cpu.intInstQueueWakeupAccesses        76346434                       # Number of integer instruction queue wakeup accesses (Count)
system.cpu.fpInstQueueReads                   8701711                       # Number of floating instruction queue reads (Count)
system.cpu.fpInstQueueWrites                  4451796                       # Number of floating instruction queue writes (Count)
system.cpu.fpInstQueueWakeupAccesses          4318145                       # Number of floating instruction queue wakeup accesses (Count)
system.cpu.vecInstQueueReads                        0                       # Number of vector instruction queue reads (Count)
system.cpu.vecInstQueueWrites                       0                       # Number of vector instruction queue writes (Count)
system.cpu.vecInstQueueWakeupAccesses               0                       # Number of vector instruction queue wakeup accesses (Count)
system.cpu.intAluAccesses                    77137317                       # Number of integer alu accesses (Count)
system.cpu.fpAluAccesses                      4376393                       # Number of floating point alu accesses (Count)
system.cpu.vecAluAccesses                           0                       # Number of vector alu accesses (Count)
system.cpu.numInsts                          80744644                       # Number of executed instructions (Count)
system.cpu.numLoadInsts                      11462269                       # Number of load instructions executed (Count)
system.cpu.numSquashedInsts                    343102                       # Number of squashed instructions skipped in execute (Count)
system.cpu.numSwp                                   0                       # Number of swp insts executed (Count)
system.cpu.numNop                                   0                       # Number of nop insts executed (Count)
system.cpu.numRefs                           17663464                       # Number of memory reference insts executed (Count)
system.cpu.numBranches                        8639799                       # Number of branches executed (Count)
system.cpu.numStoreInsts                      6201195                       # Number of stores executed (Count)
system.cpu.numRate                           1.825308                       # Inst execution rate ((Count/Cycle))
system.cpu.timesIdled                           38911                       # Number of times that the entire CPU went into an idle state and unscheduled itself (Count)
system.cpu.idleCycles                          772688                       # Total number of cycles that the CPU has spent unscheduled due to idling (Cycle)
system.cpu.committedInsts                    41289468                       # Number of Instructions Simulated (Count)
system.cpu.committedOps                      78315814                       # Number of Ops (including micro ops) Simulated (Count)
system.cpu.cpi                               1.071367                       # CPI: Cycles Per Instruction ((Cycle/Count))
system.cpu.totalCpi                          1.071367                       # CPI: Total CPI of All Threads ((Cycle/Count))
system.cpu.ipc                               0.933387                       # IPC: Instructions Per Cycle ((Count/Cycle))
system.cpu.totalIpc                          0.933387                       # IPC: Total IPC of All Threads ((Count/Cycle))
system.cpu.intRegfileReads                  124953845                       # Number of integer regfile reads (Count)
system.cpu.intRegfileWrites                  63494060                       # Number of integer regfile writes (Count)
system.cpu.fpRegfileReads                     3909045                       # Number of floating regfile reads (Count)
system.cpu.fpRegfileWrites                    3356995                       # Number of floating regfile writes (Count)
system.cpu.ccRegfileReads                    44183886                       # number of cc regfile reads (Count)
system.cpu.ccRegfileWrites                   26346446                       # number of cc regfile writes (Count)
system.cpu.miscRegfileReads                  32622889                       # number of misc regfile reads (Count)
system.cpu.MemDepUnit__0.insertedLoads       11561590                       # Number of loads inserted to the mem dependence unit. (Count)
system.cpu.MemDepUnit__0.insertedStores       6423557                       # Number of stores inserted to the mem dependence unit. (Count)
system.cpu.MemDepUnit__0.conflictingLoads      2112147                       # Number of conflicting loads. (Count)
system.cpu.MemDepUnit__0.conflictingStores      1394115                       # Number of conflicting stores. (Count)
system.cpu.MemDepUnit__1.insertedLoads              0                       # Number of loads inserted to the mem dependence unit. (Count)
system.cpu.MemDepUnit__1.insertedStores             0                       # Number of stores inserted to the mem dependence unit. (Count)
system.cpu.MemDepUnit__1.conflictingLoads            0                       # Number of conflicting loads. (Count)
system.cpu.MemDepUnit__1.conflictingStores            0                       # Number of conflicting stores. (Count)
system.cpu.MemDepUnit__2.insertedLoads              0                       # Number of loads inserted to the mem dependence unit. (Count)
system.cpu.MemDepUnit__2.insertedStores             0                       # Number of stores inserted to the mem dependence unit. (Count)
system.cpu.MemDepUnit__2.conflictingLoads            0                       # Number of conflicting loads. (Count)
system.cpu.MemDepUnit__2.conflictingStores            0                       # Number of conflicting stores. (Count)
system.cpu.MemDepUnit__3.insertedLoads              0                       # Number of loads inserted to the mem dependence unit. (Count)
system.cpu.MemDepUnit__3.insertedStores             0                       # Number of stores inserted to the mem dependence unit. (Count)
system.cpu.MemDepUnit__3.conflictingLoads            0                       # Number of conflicting loads. (Count)
system.cpu.MemDepUnit__3.conflictingStores            0                       # Number of conflicting stores. (Count)
system.cpu.branchPred.lookups                 9509986                       # Number of BP lookups (Count)
system.cpu.branchPred.condPredicted           7663717                       # Number of conditional branches predicted (Count)
system.cpu.branchPred.condIncorrect            152937                       # Number of conditional branches incorrect (Count)
system.cpu.branchPred.BTBLookups              5548735                       # Number of BTB lookups (Count)
system.cpu.branchPred.BTBHits                 5493213                       # Number of BTB hits (Count)
system.cpu.branchPred.BTBHitRatio            0.989994                       # BTB Hit Ratio (Ratio)
system.cpu.branchPred.RASUsed                  527045                       # Number of times the RAS was used to get a target. (Count)
system.cpu.branchPred.RASIncorrect                  0                       # Number of incorrect RAS predictions. (Count)
system.cpu.branchPred.indirectLookups          110843                       # Number of indirect predictor lookups. (Count)
system.cpu.branchPred.indirectHits             109737                       # Number of indirect target hits. (Count)
system.cpu.branchPred.indirectMisses             1106                       # Number of indirect misses. (Count)
system.cpu.branchPred.indirectMispredicted          187                       # Number of mispredicted indirect branches. (Count)
system.cpu.commit.commitSquashedInsts         4204687                       # The number of squashed insts skipped by commit (Count)
system.cpu.commit.commitNonSpecStalls              18                       # The number of times commit has been forced to stall to communicate backwards (Count)
system.cpu.commit.branchMispredicts            140295                       # The number of times a branch was mispredicted (Count)
system.cpu.commit.numCommittedDist::samples     42876271                       # Number of insts commited each cycle (Count)
system.cpu.commit.numCommittedDist::mean     1.826554                       # Number of insts commited each cycle (Count)
system.cpu.commit.numCommittedDist::stdev     2.824216                       # Number of insts commited each cycle (Count)
system.cpu.commit.numCommittedDist::underflows            0      0.00%      0.00% # Number of insts commited each cycle (Count)
system.cpu.commit.numCommittedDist::0        25028408     58.37%     58.37% # Number of insts commited each cycle (Count)
system.cpu.commit.numCommittedDist::1         3502588      8.17%     66.54% # Number of insts commited each cycle (Count)
system.cpu.commit.numCommittedDist::2         2914559      6.80%     73.34% # Number of insts commited each cycle (Count)
system.cpu.commit.numCommittedDist::3         2780035      6.48%     79.82% # Number of insts commited each cycle (Count)
system.cpu.commit.numCommittedDist::4         1257891      2.93%     82.76% # Number of insts commited each cycle (Count)
system.cpu.commit.numCommittedDist::5          605620      1.41%     84.17% # Number of insts commited each cycle (Count)
system.cpu.commit.numCommittedDist::6          453047      1.06%     85.23% # Number of insts commited each cycle (Count)
system.cpu.commit.numCommittedDist::7          806927      1.88%     87.11% # Number of insts commited each cycle (Count)
system.cpu.commit.numCommittedDist::8         5527196     12.89%    100.00% # Number of insts commited each cycle (Count)
system.cpu.commit.numCommittedDist::overflows            0      0.00%    100.00% # Number of insts commited each cycle (Count)
system.cpu.commit.numCommittedDist::min_value            0                       # Number of insts commited each cycle (Count)
system.cpu.commit.numCommittedDist::max_value            8                       # Number of insts commited each cycle (Count)
system.cpu.commit.numCommittedDist::total     42876271                       # Number of insts commited each cycle (Count)
system.cpu.commit.instsCommitted             41289468                       # Number of instructions committed (Count)
system.cpu.commit.opsCommitted               78315814                       # Number of ops (including micro ops) committed (Count)
system.cpu.commit.memRefs                    17180900                       # Number of memory references committed (Count)
system.cpu.commit.loads                      11117876                       # Number of loads committed (Count)
system.cpu.commit.amos                              0                       # Number of atomic instructions committed (Count)
system.cpu.commit.membars                          12                       # Number of memory barriers committed (Count)
system.cpu.commit.branches                    8399625                       # Number of branches committed (Count)
system.cpu.commit.vectorInstructions                0                       # Number of committed Vector instructions. (Count)
system.cpu.commit.floating                    4284466                       # Number of committed floating point instructions. (Count)
system.cpu.commit.integer                    74436717                       # Number of committed integer instructions. (Count)
system.cpu.commit.functionCalls                491734                       # Number of function calls committed. (Count)
system.cpu.commit.committedInstType_0::No_OpClass       850890      1.09%      1.09% # Class of committed instruction (Count)
system.cpu.commit.committedInstType_0::IntAlu     57163185     72.99%     74.08% # Class of committed instruction (Count)
system.cpu.commit.committedInstType_0::IntMult        89549      0.11%     74.19% # Class of committed instruction (Count)
system.cpu.commit.committedInstType_0::IntDiv       882475      1.13%     75.32% # Class of committed instruction (Count)
system.cpu.commit.committedInstType_0::FloatAdd       880794      1.12%     76.44% # Class of committed instruction (Count)
system.cpu.commit.committedInstType_0::FloatCmp            0      0.00%     76.44% # Class of committed instruction (Count)
system.cpu.commit.committedInstType_0::FloatCvt            0      0.00%     76.44% # Class of committed instruction (Count)
system.cpu.commit.committedInstType_0::FloatMult            0      0.00%     76.44% # Class of committed instruction (Count)
system.cpu.commit.committedInstType_0::FloatMultAcc            0      0.00%     76.44% # Class of committed instruction (Count)
system.cpu.commit.committedInstType_0::FloatDiv            0      0.00%     76.44% # Class of committed instruction (Count)
system.cpu.commit.committedInstType_0::FloatMisc            0      0.00%     76.44% # Class of committed instruction (Count)
system.cpu.commit.committedInstType_0::FloatSqrt            0      0.00%     76.44% # Class of committed instruction (Count)
system.cpu.commit.committedInstType_0::SimdAdd            0      0.00%     76.44% # Class of committed instruction (Count)
system.cpu.commit.committedInstType_0::SimdAddAcc            0      0.00%     76.44% # Class of committed instruction (Count)
system.cpu.commit.committedInstType_0::SimdAlu       287296      0.37%     76.81% # Class of committed instruction (Count)
system.cpu.commit.committedInstType_0::SimdCmp          336      0.00%     76.81% # Class of committed instruction (Count)
system.cpu.commit.committedInstType_0::SimdCvt       164462      0.21%     77.02% # Class of committed instruction (Count)
system.cpu.commit.committedInstType_0::SimdMisc       258871      0.33%     77.35% # Class of committed instruction (Count)
system.cpu.commit.committedInstType_0::SimdMult            0      0.00%     77.35% # Class of committed instruction (Count)
system.cpu.commit.committedInstType_0::SimdMultAcc            0      0.00%     77.35% # Class of committed instruction (Count)
system.cpu.commit.committedInstType_0::SimdShift            0      0.00%     77.35% # Class of committed instruction (Count)
system.cpu.commit.committedInstType_0::SimdShiftAcc            0      0.00%     77.35% # Class of committed instruction (Count)
system.cpu.commit.committedInstType_0::SimdDiv            0      0.00%     77.35% # Class of committed instruction (Count)
system.cpu.commit.committedInstType_0::SimdSqrt            0      0.00%     77.35% # Class of committed instruction (Count)
system.cpu.commit.committedInstType_0::SimdFloatAdd       278528      0.36%     77.71% # Class of committed instruction (Count)
system.cpu.commit.committedInstType_0::SimdFloatAlu            0      0.00%     77.71% # Class of committed instruction (Count)
system.cpu.commit.committedInstType_0::SimdFloatCmp            0      0.00%     77.71% # Class of committed instruction (Count)
system.cpu.commit.committedInstType_0::SimdFloatCvt        16384      0.02%     77.73% # Class of committed instruction (Count)
system.cpu.commit.committedInstType_0::SimdFloatDiv            0      0.00%     77.73% # Class of committed instruction (Count)
system.cpu.commit.committedInstType_0::SimdFloatMisc            0      0.00%     77.73% # Class of committed instruction (Count)
system.cpu.commit.committedInstType_0::SimdFloatMult       262144      0.33%     78.06% # Class of committed instruction (Count)
system.cpu.commit.committedInstType_0::SimdFloatMultAcc            0      0.00%     78.06% # Class of committed instruction (Count)
system.cpu.commit.committedInstType_0::SimdFloatSqrt            0      0.00%     78.06% # Class of committed instruction (Count)
system.cpu.commit.committedInstType_0::SimdReduceAdd            0      0.00%     78.06% # Class of committed instruction (Count)
system.cpu.commit.committedInstType_0::SimdReduceAlu            0      0.00%     78.06% # Class of committed instruction (Count)
system.cpu.commit.committedInstType_0::SimdReduceCmp            0      0.00%     78.06% # Class of committed instruction (Count)
system.cpu.commit.committedInstType_0::SimdFloatReduceAdd            0      0.00%     78.06% # Class of committed instruction (Count)
system.cpu.commit.committedInstType_0::SimdFloatReduceCmp            0      0.00%     78.06% # Class of committed instruction (Count)
system.cpu.commit.committedInstType_0::SimdAes            0      0.00%     78.06% # Class of committed instruction (Count)
system.cpu.commit.committedInstType_0::SimdAesMix            0      0.00%     78.06% # Class of committed instruction (Count)
system.cpu.commit.committedInstType_0::SimdSha1Hash            0      0.00%     78.06% # Class of committed instruction (Count)
system.cpu.commit.committedInstType_0::SimdSha1Hash2            0      0.00%     78.06% # Class of committed instruction (Count)
system.cpu.commit.committedInstType_0::SimdSha256Hash            0      0.00%     78.06% # Class of committed instruction (Count)
system.cpu.commit.committedInstType_0::SimdSha256Hash2            0      0.00%     78.06% # Class of committed instruction (Count)
system.cpu.commit.committedInstType_0::SimdShaSigma2            0      0.00%     78.06% # Class of committed instruction (Count)
system.cpu.commit.committedInstType_0::SimdShaSigma3            0      0.00%     78.06% # Class of committed instruction (Count)
system.cpu.commit.committedInstType_0::SimdPredAlu            0      0.00%     78.06% # Class of committed instruction (Count)
system.cpu.commit.committedInstType_0::MemRead      9777520     12.48%     90.55% # Class of committed instruction (Count)
system.cpu.commit.committedInstType_0::MemWrite      5308845      6.78%     97.33% # Class of committed instruction (Count)
system.cpu.commit.committedInstType_0::FloatMemRead      1340356      1.71%     99.04% # Class of committed instruction (Count)
system.cpu.commit.committedInstType_0::FloatMemWrite       754179      0.96%    100.00% # Class of committed instruction (Count)
system.cpu.commit.committedInstType_0::IprAccess            0      0.00%    100.00% # Class of committed instruction (Count)
system.cpu.commit.committedInstType_0::InstPrefetch            0      0.00%    100.00% # Class of committed instruction (Count)
system.cpu.commit.committedInstType_0::total     78315814                       # Class of committed instruction (Count)
system.cpu.commit.commitEligibleSamples       5527196                       # number cycles where commit BW limit reached (Cycle)
system.cpu.dcache.demandHits::cpu.data       13333043                       # number of demand (read+write) hits (Count)
system.cpu.dcache.demandHits::total          13333043                       # number of demand (read+write) hits (Count)
system.cpu.dcache.overallHits::cpu.data      13333043                       # number of overall hits (Count)
system.cpu.dcache.overallHits::total         13333043                       # number of overall hits (Count)
system.cpu.dcache.demandMisses::cpu.data       634944                       # number of demand (read+write) misses (Count)
system.cpu.dcache.demandMisses::total          634944                       # number of demand (read+write) misses (Count)
system.cpu.dcache.overallMisses::cpu.data       634944                       # number of overall misses (Count)
system.cpu.dcache.overallMisses::total         634944                       # number of overall misses (Count)
system.cpu.dcache.demandMissLatency::cpu.data  32040350999                       # number of demand (read+write) miss ticks (Tick)
system.cpu.dcache.demandMissLatency::total  32040350999                       # number of demand (read+write) miss ticks (Tick)
system.cpu.dcache.overallMissLatency::cpu.data  32040350999                       # number of overall miss ticks (Tick)
system.cpu.dcache.overallMissLatency::total  32040350999                       # number of overall miss ticks (Tick)
system.cpu.dcache.demandAccesses::cpu.data     13967987                       # number of demand (read+write) accesses (Count)
system.cpu.dcache.demandAccesses::total      13967987                       # number of demand (read+write) accesses (Count)
system.cpu.dcache.overallAccesses::cpu.data     13967987                       # number of overall (read+write) accesses (Count)
system.cpu.dcache.overallAccesses::total     13967987                       # number of overall (read+write) accesses (Count)
system.cpu.dcache.demandMissRate::cpu.data     0.045457                       # miss rate for demand accesses (Ratio)
system.cpu.dcache.demandMissRate::total      0.045457                       # miss rate for demand accesses (Ratio)
system.cpu.dcache.overallMissRate::cpu.data     0.045457                       # miss rate for overall accesses (Ratio)
system.cpu.dcache.overallMissRate::total     0.045457                       # miss rate for overall accesses (Ratio)
system.cpu.dcache.demandAvgMissLatency::cpu.data 50461.695833                       # average overall miss latency ((Cycle/Count))
system.cpu.dcache.demandAvgMissLatency::total 50461.695833                       # average overall miss latency ((Cycle/Count))
system.cpu.dcache.overallAvgMissLatency::cpu.data 50461.695833                       # average overall miss latency ((Cycle/Count))
system.cpu.dcache.overallAvgMissLatency::total 50461.695833                       # average overall miss latency ((Cycle/Count))
system.cpu.dcache.blockedCycles::no_mshrs       501045                       # number of cycles access was blocked (Cycle)
system.cpu.dcache.blockedCycles::no_targets            0                       # number of cycles access was blocked (Cycle)
system.cpu.dcache.blockedCauses::no_mshrs        14619                       # number of times access was blocked (Count)
system.cpu.dcache.blockedCauses::no_targets            0                       # number of times access was blocked (Count)
system.cpu.dcache.avgBlocked::no_mshrs      34.273548                       # average number of cycles each access was blocked ((Cycle/Count))
system.cpu.dcache.avgBlocked::no_targets          nan                       # average number of cycles each access was blocked ((Cycle/Count))
system.cpu.dcache.writebacks::writebacks        68499                       # number of writebacks (Count)
system.cpu.dcache.writebacks::total             68499                       # number of writebacks (Count)
system.cpu.dcache.demandMshrHits::cpu.data       168857                       # number of demand (read+write) MSHR hits (Count)
system.cpu.dcache.demandMshrHits::total        168857                       # number of demand (read+write) MSHR hits (Count)
system.cpu.dcache.overallMshrHits::cpu.data       168857                       # number of overall MSHR hits (Count)
system.cpu.dcache.overallMshrHits::total       168857                       # number of overall MSHR hits (Count)
system.cpu.dcache.demandMshrMisses::cpu.data       466087                       # number of demand (read+write) MSHR misses (Count)
system.cpu.dcache.demandMshrMisses::total       466087                       # number of demand (read+write) MSHR misses (Count)
system.cpu.dcache.overallMshrMisses::cpu.data       466087                       # number of overall MSHR misses (Count)
system.cpu.dcache.overallMshrMisses::total       466087                       # number of overall MSHR misses (Count)
system.cpu.dcache.demandMshrMissLatency::cpu.data  24678720999                       # number of demand (read+write) MSHR miss ticks (Tick)
system.cpu.dcache.demandMshrMissLatency::total  24678720999                       # number of demand (read+write) MSHR miss ticks (Tick)
system.cpu.dcache.overallMshrMissLatency::cpu.data  24678720999                       # number of overall MSHR miss ticks (Tick)
system.cpu.dcache.overallMshrMissLatency::total  24678720999                       # number of overall MSHR miss ticks (Tick)
system.cpu.dcache.demandMshrMissRate::cpu.data     0.033368                       # mshr miss ratio for demand accesses (Ratio)
system.cpu.dcache.demandMshrMissRate::total     0.033368                       # mshr miss ratio for demand accesses (Ratio)
system.cpu.dcache.overallMshrMissRate::cpu.data     0.033368                       # mshr miss ratio for overall accesses (Ratio)
system.cpu.dcache.overallMshrMissRate::total     0.033368                       # mshr miss ratio for overall accesses (Ratio)
system.cpu.dcache.demandAvgMshrMissLatency::cpu.data 52948.743473                       # average overall mshr miss latency ((Cycle/Count))
system.cpu.dcache.demandAvgMshrMissLatency::total 52948.743473                       # average overall mshr miss latency ((Cycle/Count))
system.cpu.dcache.overallAvgMshrMissLatency::cpu.data 52948.743473                       # average overall mshr miss latency ((Cycle/Count))
system.cpu.dcache.overallAvgMshrMissLatency::total 52948.743473                       # average overall mshr miss latency ((Cycle/Count))
system.cpu.dcache.replacements                 466023                       # number of replacements (Count)
system.cpu.dcache.ReadReq.hits::cpu.data      7320844                       # number of ReadReq hits (Count)
system.cpu.dcache.ReadReq.hits::total         7320844                       # number of ReadReq hits (Count)
system.cpu.dcache.ReadReq.misses::cpu.data       584118                       # number of ReadReq misses (Count)
system.cpu.dcache.ReadReq.misses::total        584118                       # number of ReadReq misses (Count)
system.cpu.dcache.ReadReq.missLatency::cpu.data  30729282000                       # number of ReadReq miss ticks (Tick)
system.cpu.dcache.ReadReq.missLatency::total  30729282000                       # number of ReadReq miss ticks (Tick)
system.cpu.dcache.ReadReq.accesses::cpu.data      7904962                       # number of ReadReq accesses(hits+misses) (Count)
system.cpu.dcache.ReadReq.accesses::total      7904962                       # number of ReadReq accesses(hits+misses) (Count)
system.cpu.dcache.ReadReq.missRate::cpu.data     0.073893                       # miss rate for ReadReq accesses (Ratio)
system.cpu.dcache.ReadReq.missRate::total     0.073893                       # miss rate for ReadReq accesses (Ratio)
system.cpu.dcache.ReadReq.avgMissLatency::cpu.data 52608.003862                       # average ReadReq miss latency ((Tick/Count))
system.cpu.dcache.ReadReq.avgMissLatency::total 52608.003862                       # average ReadReq miss latency ((Tick/Count))
system.cpu.dcache.ReadReq.mshrHits::cpu.data       168742                       # number of ReadReq MSHR hits (Count)
system.cpu.dcache.ReadReq.mshrHits::total       168742                       # number of ReadReq MSHR hits (Count)
system.cpu.dcache.ReadReq.mshrMisses::cpu.data       415376                       # number of ReadReq MSHR misses (Count)
system.cpu.dcache.ReadReq.mshrMisses::total       415376                       # number of ReadReq MSHR misses (Count)
system.cpu.dcache.ReadReq.mshrMissLatency::cpu.data  23421471000                       # number of ReadReq MSHR miss ticks (Tick)
system.cpu.dcache.ReadReq.mshrMissLatency::total  23421471000                       # number of ReadReq MSHR miss ticks (Tick)
system.cpu.dcache.ReadReq.mshrMissRate::cpu.data     0.052546                       # mshr miss rate for ReadReq accesses (Ratio)
system.cpu.dcache.ReadReq.mshrMissRate::total     0.052546                       # mshr miss rate for ReadReq accesses (Ratio)
system.cpu.dcache.ReadReq.avgMshrMissLatency::cpu.data 56386.192269                       # average ReadReq mshr miss latency ((Tick/Count))
system.cpu.dcache.ReadReq.avgMshrMissLatency::total 56386.192269                       # average ReadReq mshr miss latency ((Tick/Count))
system.cpu.dcache.WriteReq.hits::cpu.data      6012199                       # number of WriteReq hits (Count)
system.cpu.dcache.WriteReq.hits::total        6012199                       # number of WriteReq hits (Count)
system.cpu.dcache.WriteReq.misses::cpu.data        50826                       # number of WriteReq misses (Count)
system.cpu.dcache.WriteReq.misses::total        50826                       # number of WriteReq misses (Count)
system.cpu.dcache.WriteReq.missLatency::cpu.data   1311068999                       # number of WriteReq miss ticks (Tick)
system.cpu.dcache.WriteReq.missLatency::total   1311068999                       # number of WriteReq miss ticks (Tick)
system.cpu.dcache.WriteReq.accesses::cpu.data      6063025                       # number of WriteReq accesses(hits+misses) (Count)
system.cpu.dcache.WriteReq.accesses::total      6063025                       # number of WriteReq accesses(hits+misses) (Count)
system.cpu.dcache.WriteReq.missRate::cpu.data     0.008383                       # miss rate for WriteReq accesses (Ratio)
system.cpu.dcache.WriteReq.missRate::total     0.008383                       # miss rate for WriteReq accesses (Ratio)
system.cpu.dcache.WriteReq.avgMissLatency::cpu.data 25795.242573                       # average WriteReq miss latency ((Tick/Count))
system.cpu.dcache.WriteReq.avgMissLatency::total 25795.242573                       # average WriteReq miss latency ((Tick/Count))
system.cpu.dcache.WriteReq.mshrHits::cpu.data          115                       # number of WriteReq MSHR hits (Count)
system.cpu.dcache.WriteReq.mshrHits::total          115                       # number of WriteReq MSHR hits (Count)
system.cpu.dcache.WriteReq.mshrMisses::cpu.data        50711                       # number of WriteReq MSHR misses (Count)
system.cpu.dcache.WriteReq.mshrMisses::total        50711                       # number of WriteReq MSHR misses (Count)
system.cpu.dcache.WriteReq.mshrMissLatency::cpu.data   1257249999                       # number of WriteReq MSHR miss ticks (Tick)
system.cpu.dcache.WriteReq.mshrMissLatency::total   1257249999                       # number of WriteReq MSHR miss ticks (Tick)
system.cpu.dcache.WriteReq.mshrMissRate::cpu.data     0.008364                       # mshr miss rate for WriteReq accesses (Ratio)
system.cpu.dcache.WriteReq.mshrMissRate::total     0.008364                       # mshr miss rate for WriteReq accesses (Ratio)
system.cpu.dcache.WriteReq.avgMshrMissLatency::cpu.data 24792.451322                       # average WriteReq mshr miss latency ((Tick/Count))
system.cpu.dcache.WriteReq.avgMshrMissLatency::total 24792.451322                       # average WriteReq mshr miss latency ((Tick/Count))
system.cpu.dcache.power_state.pwrStateResidencyTicks::UNDEFINED  22118086500                       # Cumulative time (in ticks) in various power states (Tick)
system.cpu.dcache.tags.tagsInUse            63.990572                       # Average ticks per tags in use ((Tick/Count))
system.cpu.dcache.tags.totalRefs             13799130                       # Total number of references to valid blocks. (Count)
system.cpu.dcache.tags.sampledRefs             466087                       # Sample count of references to valid blocks. (Count)
system.cpu.dcache.tags.avgRefs              29.606340                       # Average number of references to valid blocks. ((Count/Count))
system.cpu.dcache.tags.warmupTick              145000                       # The tick when the warmup percentage was hit. (Tick)
system.cpu.dcache.tags.occupancies::cpu.data    63.990572                       # Average occupied blocks per tick, per requestor ((Count/Tick))
system.cpu.dcache.tags.avgOccs::cpu.data     0.999853                       # Average percentage of cache occupancy ((Ratio/Tick))
system.cpu.dcache.tags.avgOccs::total        0.999853                       # Average percentage of cache occupancy ((Ratio/Tick))
system.cpu.dcache.tags.occupanciesTaskId::1024           64                       # Occupied blocks per task id (Count)
system.cpu.dcache.tags.ageTaskId_1024::0           49                       # Occupied blocks per task id, per block age (Count)
system.cpu.dcache.tags.ageTaskId_1024::1           15                       # Occupied blocks per task id, per block age (Count)
system.cpu.dcache.tags.ratioOccsTaskId::1024            1                       # Ratio of occupied blocks and all blocks, per task id (Ratio)
system.cpu.dcache.tags.tagAccesses           28402061                       # Number of tag accesses (Count)
system.cpu.dcache.tags.dataAccesses          28402061                       # Number of data accesses (Count)
system.cpu.dcache.tags.power_state.pwrStateResidencyTicks::UNDEFINED  22118086500                       # Cumulative time (in ticks) in various power states (Tick)
system.cpu.decode.idleCycles                  6621634                       # Number of cycles decode is idle (Cycle)
system.cpu.decode.blockedCycles              23958597                       # Number of cycles decode is blocked (Cycle)
system.cpu.decode.runCycles                  10863883                       # Number of cycles decode is running (Cycle)
system.cpu.decode.unblockCycles               1873096                       # Number of cycles decode is unblocking (Cycle)
system.cpu.decode.squashCycles                 146276                       # Number of cycles decode is squashing (Cycle)
system.cpu.decode.branchResolved              5217470                       # Number of times decode resolved a branch (Count)
system.cpu.decode.branchMispred                 12805                       # Number of times decode detected a branch misprediction (Count)
system.cpu.decode.decodedInsts               84301096                       # Number of instructions handled by decode (Count)
system.cpu.decode.squashedInsts                100675                       # Number of squashed instructions handled by decode (Count)
system.cpu.dtb_walker_cache.blockedCycles::no_mshrs            0                       # number of cycles access was blocked (Cycle)
system.cpu.dtb_walker_cache.blockedCycles::no_targets            0                       # number of cycles access was blocked (Cycle)
system.cpu.dtb_walker_cache.blockedCauses::no_mshrs            0                       # number of times access was blocked (Count)
system.cpu.dtb_walker_cache.blockedCauses::no_targets            0                       # number of times access was blocked (Count)
system.cpu.dtb_walker_cache.avgBlocked::no_mshrs          nan                       # average number of cycles each access was blocked ((Cycle/Count))
system.cpu.dtb_walker_cache.avgBlocked::no_targets          nan                       # average number of cycles each access was blocked ((Cycle/Count))
system.cpu.dtb_walker_cache.replacements            0                       # number of replacements (Count)
system.cpu.dtb_walker_cache.power_state.pwrStateResidencyTicks::UNDEFINED  22118086500                       # Cumulative time (in ticks) in various power states (Tick)
system.cpu.dtb_walker_cache.tags.tagsInUse            0                       # Average ticks per tags in use ((Tick/Count))
system.cpu.dtb_walker_cache.tags.totalRefs            0                       # Total number of references to valid blocks. (Count)
system.cpu.dtb_walker_cache.tags.sampledRefs            0                       # Sample count of references to valid blocks. (Count)
system.cpu.dtb_walker_cache.tags.avgRefs          nan                       # Average number of references to valid blocks. ((Count/Count))
system.cpu.dtb_walker_cache.tags.warmupTick            0                       # The tick when the warmup percentage was hit. (Tick)
system.cpu.dtb_walker_cache.tags.tagAccesses            0                       # Number of tag accesses (Count)
system.cpu.dtb_walker_cache.tags.dataAccesses            0                       # Number of data accesses (Count)
system.cpu.dtb_walker_cache.tags.power_state.pwrStateResidencyTicks::UNDEFINED  22118086500                       # Cumulative time (in ticks) in various power states (Tick)
system.cpu.fetch.icacheStallCycles            8000695                       # Number of cycles fetch is stalled on an Icache miss (Cycle)
system.cpu.fetch.insts                       44736574                       # Number of instructions fetch has processed (Count)
system.cpu.fetch.branches                     9509986                       # Number of branches that fetch encountered (Count)
system.cpu.fetch.predictedBranches            6129995                       # Number of branches that fetch has predicted taken (Count)
system.cpu.fetch.cycles                      35302322                       # Number of cycles fetch has run and was not squashing or blocked (Cycle)
system.cpu.fetch.squashCycles                  318136                       # Number of cycles fetch has spent squashing (Cycle)
system.cpu.fetch.miscStallCycles                  170                       # Number of cycles fetch has spent waiting on interrupts, or bad addresses, or out of MSHRs (Cycle)
system.cpu.fetch.pendingTrapStallCycles          1141                       # Number of stall cycles due to pending traps (Cycle)
system.cpu.fetch.pendingQuiesceStallCycles            2                       # Number of stall cycles due to pending quiesce instructions (Cycle)
system.cpu.fetch.icacheWaitRetryStallCycles           88                       # Number of stall cycles due to full MSHR (Cycle)
system.cpu.fetch.cacheLines                   6350248                       # Number of cache lines fetched (Count)
system.cpu.fetch.icacheSquashes                 26362                       # Number of outstanding Icache misses that were squashed (Count)
system.cpu.fetch.nisnDist::samples           43463486                       # Number of instructions fetched each cycle (Total) (Count)
system.cpu.fetch.nisnDist::mean              1.991998                       # Number of instructions fetched each cycle (Total) (Count)
system.cpu.fetch.nisnDist::stdev             3.156471                       # Number of instructions fetched each cycle (Total) (Count)
system.cpu.fetch.nisnDist::underflows               0      0.00%      0.00% # Number of instructions fetched each cycle (Total) (Count)
system.cpu.fetch.nisnDist::0                 29113178     66.98%     66.98% # Number of instructions fetched each cycle (Total) (Count)
system.cpu.fetch.nisnDist::1                   828914      1.91%     68.89% # Number of instructions fetched each cycle (Total) (Count)
system.cpu.fetch.nisnDist::2                   972300      2.24%     71.13% # Number of instructions fetched each cycle (Total) (Count)
system.cpu.fetch.nisnDist::3                   968477      2.23%     73.36% # Number of instructions fetched each cycle (Total) (Count)
system.cpu.fetch.nisnDist::4                  1568161      3.61%     76.96% # Number of instructions fetched each cycle (Total) (Count)
system.cpu.fetch.nisnDist::5                  1165542      2.68%     79.65% # Number of instructions fetched each cycle (Total) (Count)
system.cpu.fetch.nisnDist::6                   635676      1.46%     81.11% # Number of instructions fetched each cycle (Total) (Count)
system.cpu.fetch.nisnDist::7                   704098      1.62%     82.73% # Number of instructions fetched each cycle (Total) (Count)
system.cpu.fetch.nisnDist::8                  7507140     17.27%    100.00% # Number of instructions fetched each cycle (Total) (Count)
system.cpu.fetch.nisnDist::overflows                0      0.00%    100.00% # Number of instructions fetched each cycle (Total) (Count)
system.cpu.fetch.nisnDist::min_value                0                       # Number of instructions fetched each cycle (Total) (Count)
system.cpu.fetch.nisnDist::max_value                8                       # Number of instructions fetched each cycle (Total) (Count)
system.cpu.fetch.nisnDist::total             43463486                       # Number of instructions fetched each cycle (Total) (Count)
system.cpu.fetch.branchRate                  0.214982                       # Number of branch fetches per cycle (Ratio)
system.cpu.fetch.rate                        1.011312                       # Number of inst fetches per cycle ((Count/Cycle))
system.cpu.icache.demandHits::cpu.inst        6292264                       # number of demand (read+write) hits (Count)
system.cpu.icache.demandHits::total           6292264                       # number of demand (read+write) hits (Count)
system.cpu.icache.overallHits::cpu.inst       6292264                       # number of overall hits (Count)
system.cpu.icache.overallHits::total          6292264                       # number of overall hits (Count)
system.cpu.icache.demandMisses::cpu.inst        57984                       # number of demand (read+write) misses (Count)
system.cpu.icache.demandMisses::total           57984                       # number of demand (read+write) misses (Count)
system.cpu.icache.overallMisses::cpu.inst        57984                       # number of overall misses (Count)
system.cpu.icache.overallMisses::total          57984                       # number of overall misses (Count)
system.cpu.icache.demandMissLatency::cpu.inst   1325262498                       # number of demand (read+write) miss ticks (Tick)
system.cpu.icache.demandMissLatency::total   1325262498                       # number of demand (read+write) miss ticks (Tick)
system.cpu.icache.overallMissLatency::cpu.inst   1325262498                       # number of overall miss ticks (Tick)
system.cpu.icache.overallMissLatency::total   1325262498                       # number of overall miss ticks (Tick)
system.cpu.icache.demandAccesses::cpu.inst      6350248                       # number of demand (read+write) accesses (Count)
system.cpu.icache.demandAccesses::total       6350248                       # number of demand (read+write) accesses (Count)
system.cpu.icache.overallAccesses::cpu.inst      6350248                       # number of overall (read+write) accesses (Count)
system.cpu.icache.overallAccesses::total      6350248                       # number of overall (read+write) accesses (Count)
system.cpu.icache.demandMissRate::cpu.inst     0.009131                       # miss rate for demand accesses (Ratio)
system.cpu.icache.demandMissRate::total      0.009131                       # miss rate for demand accesses (Ratio)
system.cpu.icache.overallMissRate::cpu.inst     0.009131                       # miss rate for overall accesses (Ratio)
system.cpu.icache.overallMissRate::total     0.009131                       # miss rate for overall accesses (Ratio)
system.cpu.icache.demandAvgMissLatency::cpu.inst 22855.658423                       # average overall miss latency ((Cycle/Count))
system.cpu.icache.demandAvgMissLatency::total 22855.658423                       # average overall miss latency ((Cycle/Count))
system.cpu.icache.overallAvgMissLatency::cpu.inst 22855.658423                       # average overall miss latency ((Cycle/Count))
system.cpu.icache.overallAvgMissLatency::total 22855.658423                       # average overall miss latency ((Cycle/Count))
system.cpu.icache.blockedCycles::no_mshrs          602                       # number of cycles access was blocked (Cycle)
system.cpu.icache.blockedCycles::no_targets            0                       # number of cycles access was blocked (Cycle)
system.cpu.icache.blockedCauses::no_mshrs           10                       # number of times access was blocked (Count)
system.cpu.icache.blockedCauses::no_targets            0                       # number of times access was blocked (Count)
system.cpu.icache.avgBlocked::no_mshrs      60.200000                       # average number of cycles each access was blocked ((Cycle/Count))
system.cpu.icache.avgBlocked::no_targets          nan                       # average number of cycles each access was blocked ((Cycle/Count))
system.cpu.icache.writebacks::writebacks        53862                       # number of writebacks (Count)
system.cpu.icache.writebacks::total             53862                       # number of writebacks (Count)
system.cpu.icache.demandMshrHits::cpu.inst         3622                       # number of demand (read+write) MSHR hits (Count)
system.cpu.icache.demandMshrHits::total          3622                       # number of demand (read+write) MSHR hits (Count)
system.cpu.icache.overallMshrHits::cpu.inst         3622                       # number of overall MSHR hits (Count)
system.cpu.icache.overallMshrHits::total         3622                       # number of overall MSHR hits (Count)
system.cpu.icache.demandMshrMisses::cpu.inst        54362                       # number of demand (read+write) MSHR misses (Count)
system.cpu.icache.demandMshrMisses::total        54362                       # number of demand (read+write) MSHR misses (Count)
system.cpu.icache.overallMshrMisses::cpu.inst        54362                       # number of overall MSHR misses (Count)
system.cpu.icache.overallMshrMisses::total        54362                       # number of overall MSHR misses (Count)
system.cpu.icache.demandMshrMissLatency::cpu.inst   1247847498                       # number of demand (read+write) MSHR miss ticks (Tick)
system.cpu.icache.demandMshrMissLatency::total   1247847498                       # number of demand (read+write) MSHR miss ticks (Tick)
system.cpu.icache.overallMshrMissLatency::cpu.inst   1247847498                       # number of overall MSHR miss ticks (Tick)
system.cpu.icache.overallMshrMissLatency::total   1247847498                       # number of overall MSHR miss ticks (Tick)
system.cpu.icache.demandMshrMissRate::cpu.inst     0.008561                       # mshr miss ratio for demand accesses (Ratio)
system.cpu.icache.demandMshrMissRate::total     0.008561                       # mshr miss ratio for demand accesses (Ratio)
system.cpu.icache.overallMshrMissRate::cpu.inst     0.008561                       # mshr miss ratio for overall accesses (Ratio)
system.cpu.icache.overallMshrMissRate::total     0.008561                       # mshr miss ratio for overall accesses (Ratio)
system.cpu.icache.demandAvgMshrMissLatency::cpu.inst 22954.407454                       # average overall mshr miss latency ((Cycle/Count))
system.cpu.icache.demandAvgMshrMissLatency::total 22954.407454                       # average overall mshr miss latency ((Cycle/Count))
system.cpu.icache.overallAvgMshrMissLatency::cpu.inst 22954.407454                       # average overall mshr miss latency ((Cycle/Count))
system.cpu.icache.overallAvgMshrMissLatency::total 22954.407454                       # average overall mshr miss latency ((Cycle/Count))
system.cpu.icache.replacements                  53862                       # number of replacements (Count)
system.cpu.icache.ReadReq.hits::cpu.inst      6292264                       # number of ReadReq hits (Count)
system.cpu.icache.ReadReq.hits::total         6292264                       # number of ReadReq hits (Count)
system.cpu.icache.ReadReq.misses::cpu.inst        57984                       # number of ReadReq misses (Count)
system.cpu.icache.ReadReq.misses::total         57984                       # number of ReadReq misses (Count)
system.cpu.icache.ReadReq.missLatency::cpu.inst   1325262498                       # number of ReadReq miss ticks (Tick)
system.cpu.icache.ReadReq.missLatency::total   1325262498                       # number of ReadReq miss ticks (Tick)
system.cpu.icache.ReadReq.accesses::cpu.inst      6350248                       # number of ReadReq accesses(hits+misses) (Count)
system.cpu.icache.ReadReq.accesses::total      6350248                       # number of ReadReq accesses(hits+misses) (Count)
system.cpu.icache.ReadReq.missRate::cpu.inst     0.009131                       # miss rate for ReadReq accesses (Ratio)
system.cpu.icache.ReadReq.missRate::total     0.009131                       # miss rate for ReadReq accesses (Ratio)
system.cpu.icache.ReadReq.avgMissLatency::cpu.inst 22855.658423                       # average ReadReq miss latency ((Tick/Count))
system.cpu.icache.ReadReq.avgMissLatency::total 22855.658423                       # average ReadReq miss latency ((Tick/Count))
system.cpu.icache.ReadReq.mshrHits::cpu.inst         3622                       # number of ReadReq MSHR hits (Count)
system.cpu.icache.ReadReq.mshrHits::total         3622                       # number of ReadReq MSHR hits (Count)
system.cpu.icache.ReadReq.mshrMisses::cpu.inst        54362                       # number of ReadReq MSHR misses (Count)
system.cpu.icache.ReadReq.mshrMisses::total        54362                       # number of ReadReq MSHR misses (Count)
system.cpu.icache.ReadReq.mshrMissLatency::cpu.inst   1247847498                       # number of ReadReq MSHR miss ticks (Tick)
system.cpu.icache.ReadReq.mshrMissLatency::total   1247847498                       # number of ReadReq MSHR miss ticks (Tick)
system.cpu.icache.ReadReq.mshrMissRate::cpu.inst     0.008561                       # mshr miss rate for ReadReq accesses (Ratio)
system.cpu.icache.ReadReq.mshrMissRate::total     0.008561                       # mshr miss rate for ReadReq accesses (Ratio)
system.cpu.icache.ReadReq.avgMshrMissLatency::cpu.inst 22954.407454                       # average ReadReq mshr miss latency ((Tick/Count))
system.cpu.icache.ReadReq.avgMshrMissLatency::total 22954.407454                       # average ReadReq mshr miss latency ((Tick/Count))
system.cpu.icache.power_state.pwrStateResidencyTicks::UNDEFINED  22118086500                       # Cumulative time (in ticks) in various power states (Tick)
system.cpu.icache.tags.tagsInUse           460.949287                       # Average ticks per tags in use ((Tick/Count))
system.cpu.icache.tags.totalRefs              6346626                       # Total number of references to valid blocks. (Count)
system.cpu.icache.tags.sampledRefs              54362                       # Sample count of references to valid blocks. (Count)
system.cpu.icache.tags.avgRefs             116.747471                       # Average number of references to valid blocks. ((Count/Count))
system.cpu.icache.tags.warmupTick               77000                       # The tick when the warmup percentage was hit. (Tick)
system.cpu.icache.tags.occupancies::cpu.inst   460.949287                       # Average occupied blocks per tick, per requestor ((Count/Tick))
system.cpu.icache.tags.avgOccs::cpu.inst     0.900292                       # Average percentage of cache occupancy ((Ratio/Tick))
system.cpu.icache.tags.avgOccs::total        0.900292                       # Average percentage of cache occupancy ((Ratio/Tick))
system.cpu.icache.tags.occupanciesTaskId::1024          500                       # Occupied blocks per task id (Count)
system.cpu.icache.tags.ageTaskId_1024::0          115                       # Occupied blocks per task id, per block age (Count)
system.cpu.icache.tags.ageTaskId_1024::2           25                       # Occupied blocks per task id, per block age (Count)
system.cpu.icache.tags.ageTaskId_1024::3           85                       # Occupied blocks per task id, per block age (Count)
system.cpu.icache.tags.ageTaskId_1024::4          275                       # Occupied blocks per task id, per block age (Count)
system.cpu.icache.tags.ratioOccsTaskId::1024     0.976562                       # Ratio of occupied blocks and all blocks, per task id (Ratio)
system.cpu.icache.tags.tagAccesses           12754858                       # Number of tag accesses (Count)
system.cpu.icache.tags.dataAccesses          12754858                       # Number of data accesses (Count)
system.cpu.icache.tags.power_state.pwrStateResidencyTicks::UNDEFINED  22118086500                       # Cumulative time (in ticks) in various power states (Tick)
system.cpu.iew.idleCycles                           0                       # Number of cycles IEW is idle (Cycle)
system.cpu.iew.squashCycles                    146276                       # Number of cycles IEW is squashing (Cycle)
system.cpu.iew.blockCycles                    3186111                       # Number of cycles IEW is blocking (Cycle)
system.cpu.iew.unblockCycles                  2232438                       # Number of cycles IEW is unblocking (Cycle)
system.cpu.iew.dispatchedInsts               82683946                       # Number of instructions dispatched to IQ (Count)
system.cpu.iew.dispSquashedInsts                43682                       # Number of squashed instructions skipped by dispatch (Count)
system.cpu.iew.dispLoadInsts                 11561590                       # Number of dispatched load instructions (Count)
system.cpu.iew.dispStoreInsts                 6423557                       # Number of dispatched store instructions (Count)
system.cpu.iew.dispNonSpecInsts                    23                       # Number of dispatched non-speculative instructions (Count)
system.cpu.iew.iqFullEvents                     74658                       # Number of times the IQ has become full, causing a stall (Count)
system.cpu.iew.lsqFullEvents                  2139629                       # Number of times the LSQ has become full, causing a stall (Count)
system.cpu.iew.memOrderViolationEvents           1995                       # Number of memory order violations (Count)
system.cpu.iew.predictedTakenIncorrect          73443                       # Number of branches that were predicted taken incorrectly (Count)
system.cpu.iew.predictedNotTakenIncorrect        91150                       # Number of branches that were predicted not taken incorrectly (Count)
system.cpu.iew.branchMispredicts               164593                       # Number of branch mispredicts detected at execute (Count)
system.cpu.iew.instsToCommit                 80698567                       # Cumulative count of insts sent to commit (Count)
system.cpu.iew.writebackCount                80664579                       # Cumulative count of insts written-back (Count)
system.cpu.iew.producerInst                  56557877                       # Number of instructions producing a value (Count)
system.cpu.iew.consumerInst                  96281274                       # Number of instructions consuming a value (Count)
system.cpu.iew.wbRate                        1.823498                       # Insts written-back per cycle ((Count/Cycle))
system.cpu.iew.wbFanout                      0.587423                       # Average fanout of values written-back ((Count/Count))
system.cpu.interrupts.clk_domain.clock           8000                       # Clock period in ticks (Tick)
system.cpu.itb_walker_cache.blockedCycles::no_mshrs            0                       # number of cycles access was blocked (Cycle)
system.cpu.itb_walker_cache.blockedCycles::no_targets            0                       # number of cycles access was blocked (Cycle)
system.cpu.itb_walker_cache.blockedCauses::no_mshrs            0                       # number of times access was blocked (Count)
system.cpu.itb_walker_cache.blockedCauses::no_targets            0                       # number of times access was blocked (Count)
system.cpu.itb_walker_cache.avgBlocked::no_mshrs          nan                       # average number of cycles each access was blocked ((Cycle/Count))
system.cpu.itb_walker_cache.avgBlocked::no_targets          nan                       # average number of cycles each access was blocked ((Cycle/Count))
system.cpu.itb_walker_cache.replacements            0                       # number of replacements (Count)
system.cpu.itb_walker_cache.power_state.pwrStateResidencyTicks::UNDEFINED  22118086500                       # Cumulative time (in ticks) in various power states (Tick)
system.cpu.itb_walker_cache.tags.tagsInUse            0                       # Average ticks per tags in use ((Tick/Count))
system.cpu.itb_walker_cache.tags.totalRefs            0                       # Total number of references to valid blocks. (Count)
system.cpu.itb_walker_cache.tags.sampledRefs            0                       # Sample count of references to valid blocks. (Count)
system.cpu.itb_walker_cache.tags.avgRefs          nan                       # Average number of references to valid blocks. ((Count/Count))
system.cpu.itb_walker_cache.tags.warmupTick            0                       # The tick when the warmup percentage was hit. (Tick)
system.cpu.itb_walker_cache.tags.tagAccesses            0                       # Number of tag accesses (Count)
system.cpu.itb_walker_cache.tags.dataAccesses            0                       # Number of data accesses (Count)
system.cpu.itb_walker_cache.tags.power_state.pwrStateResidencyTicks::UNDEFINED  22118086500                       # Cumulative time (in ticks) in various power states (Tick)
system.cpu.lsq0.forwLoads                     3574283                       # Number of loads that had data forwarded from stores (Count)
system.cpu.lsq0.squashedLoads                  443714                       # Number of loads squashed (Count)
system.cpu.lsq0.ignoredResponses                  184                       # Number of memory responses ignored because the instruction is squashed (Count)
system.cpu.lsq0.memOrderViolation                1995                       # Number of memory ordering violations (Count)
system.cpu.lsq0.squashedStores                 360533                       # Number of stores squashed (Count)
system.cpu.lsq0.rescheduledLoads                    2                       # Number of loads that were rescheduled (Count)
system.cpu.lsq0.blockedByCache                   2059                       # Number of times an access to memory failed due to the cache being blocked (Count)
system.cpu.lsq0.loadToUse::samples           11117876                       # Distribution of cycle latency between the first time a load is issued and its completion (Unspecified)
system.cpu.lsq0.loadToUse::mean              8.191910                       # Distribution of cycle latency between the first time a load is issued and its completion (Unspecified)
system.cpu.lsq0.loadToUse::stdev            26.331559                       # Distribution of cycle latency between the first time a load is issued and its completion (Unspecified)
system.cpu.lsq0.loadToUse::0-9               10540189     94.80%     94.80% # Distribution of cycle latency between the first time a load is issued and its completion (Unspecified)
system.cpu.lsq0.loadToUse::10-19                 3518      0.03%     94.84% # Distribution of cycle latency between the first time a load is issued and its completion (Unspecified)
system.cpu.lsq0.loadToUse::20-29                 2830      0.03%     94.86% # Distribution of cycle latency between the first time a load is issued and its completion (Unspecified)
system.cpu.lsq0.loadToUse::30-39                17221      0.15%     95.02% # Distribution of cycle latency between the first time a load is issued and its completion (Unspecified)
system.cpu.lsq0.loadToUse::40-49                28619      0.26%     95.27% # Distribution of cycle latency between the first time a load is issued and its completion (Unspecified)
system.cpu.lsq0.loadToUse::50-59                51460      0.46%     95.74% # Distribution of cycle latency between the first time a load is issued and its completion (Unspecified)
system.cpu.lsq0.loadToUse::60-69                  852      0.01%     95.74% # Distribution of cycle latency between the first time a load is issued and its completion (Unspecified)
system.cpu.lsq0.loadToUse::70-79                 1496      0.01%     95.76% # Distribution of cycle latency between the first time a load is issued and its completion (Unspecified)
[...]
system.mem_ctrls.dram.bwWrite::total        198205934                       # Write bandwidth from this memory ((Byte/Second))
system.mem_ctrls.dram.bwTotal::writebacks    198205934                       # Total bandwidth to/from this memory ((Byte/Second))
system.mem_ctrls.dram.bwTotal::cpu.inst     157299683                       # Total bandwidth to/from this memory ((Byte/Second))
system.mem_ctrls.dram.bwTotal::cpu.data    1348650481                       # Total bandwidth to/from this memory ((Byte/Second))
system.mem_ctrls.dram.bwTotal::total       1704156099                       # Total bandwidth to/from this memory ((Byte/Second))
system.mem_ctrls.dram.readBursts               406235                       # Number of DRAM read bursts (Count)
system.mem_ctrls.dram.writeBursts                9585                       # Number of DRAM write bursts (Count)
system.mem_ctrls.dram.perBankRdBursts::0        11806                       # Per bank write bursts (Count)
system.mem_ctrls.dram.perBankRdBursts::1        66298                       # Per bank write bursts (Count)
system.mem_ctrls.dram.perBankRdBursts::2        71467                       # Per bank write bursts (Count)
system.mem_ctrls.dram.perBankRdBursts::3        82537                       # Per bank write bursts (Count)
system.mem_ctrls.dram.perBankRdBursts::4        64559                       # Per bank write bursts (Count)
system.mem_ctrls.dram.perBankRdBursts::5         1386                       # Per bank write bursts (Count)
system.mem_ctrls.dram.perBankRdBursts::6         5734                       # Per bank write bursts (Count)
system.mem_ctrls.dram.perBankRdBursts::7         6751                       # Per bank write bursts (Count)
system.mem_ctrls.dram.perBankRdBursts::8        55739                       # Per bank write bursts (Count)
system.mem_ctrls.dram.perBankRdBursts::9         4928                       # Per bank write bursts (Count)
system.mem_ctrls.dram.perBankRdBursts::10         1086                       # Per bank write bursts (Count)
system.mem_ctrls.dram.perBankRdBursts::11        26277                       # Per bank write bursts (Count)
system.mem_ctrls.dram.perBankRdBursts::12         1210                       # Per bank write bursts (Count)
system.mem_ctrls.dram.perBankRdBursts::13         2192                       # Per bank write bursts (Count)
system.mem_ctrls.dram.perBankRdBursts::14         2114                       # Per bank write bursts (Count)
system.mem_ctrls.dram.perBankRdBursts::15         2151                       # Per bank write bursts (Count)
system.mem_ctrls.dram.perBankWrBursts::0          553                       # Per bank write bursts (Count)
system.mem_ctrls.dram.perBankWrBursts::1          590                       # Per bank write bursts (Count)
system.mem_ctrls.dram.perBankWrBursts::2          559                       # Per bank write bursts (Count)
system.mem_ctrls.dram.perBankWrBursts::3          584                       # Per bank write bursts (Count)
system.mem_ctrls.dram.perBankWrBursts::4          550                       # Per bank write bursts (Count)
system.mem_ctrls.dram.perBankWrBursts::5          545                       # Per bank write bursts (Count)
system.mem_ctrls.dram.perBankWrBursts::6          536                       # Per bank write bursts (Count)
system.mem_ctrls.dram.perBankWrBursts::7          626                       # Per bank write bursts (Count)
system.mem_ctrls.dram.perBankWrBursts::8          593                       # Per bank write bursts (Count)
system.mem_ctrls.dram.perBankWrBursts::9          592                       # Per bank write bursts (Count)
system.mem_ctrls.dram.perBankWrBursts::10         1233                       # Per bank write bursts (Count)
system.mem_ctrls.dram.perBankWrBursts::11          381                       # Per bank write bursts (Count)
system.mem_ctrls.dram.perBankWrBursts::12          489                       # Per bank write bursts (Count)
system.mem_ctrls.dram.perBankWrBursts::13          620                       # Per bank write bursts (Count)
system.mem_ctrls.dram.perBankWrBursts::14          542                       # Per bank write bursts (Count)
system.mem_ctrls.dram.perBankWrBursts::15          592                       # Per bank write bursts (Count)
system.mem_ctrls.dram.totQLat              2956865750                       # Total ticks spent queuing (Tick)
system.mem_ctrls.dram.totBusLat            2031175000                       # Total ticks spent in databus transfers (Tick)
system.mem_ctrls.dram.totMemAccLat        10573772000                       # Total ticks spent from burst creation until serviced by the DRAM (Tick)
system.mem_ctrls.dram.avgQLat                 7278.71                       # Average queueing delay per DRAM burst ((Tick/Count))
system.mem_ctrls.dram.avgBusLat               5000.00                       # Average bus latency per DRAM burst ((Tick/Count))
system.mem_ctrls.dram.avgMemAccLat           26028.71                       # Average memory access latency per DRAM burst ((Tick/Count))
system.mem_ctrls.dram.readRowHits              336650                       # Number of row buffer hits during reads (Count)
system.mem_ctrls.dram.writeRowHits               8539                       # Number of row buffer hits during writes (Count)
system.mem_ctrls.dram.readRowHitRate            82.87                       # Row buffer hit rate for reads (Ratio)
system.mem_ctrls.dram.writeRowHitRate           89.09                       # Row buffer hit rate for writes (Ratio)
system.mem_ctrls.dram.bytesPerActivate::samples        70617                       # Bytes accessed per row activation (Byte)
system.mem_ctrls.dram.bytesPerActivate::mean   376.809437                       # Bytes accessed per row activation (Byte)
system.mem_ctrls.dram.bytesPerActivate::gmean   197.863008                       # Bytes accessed per row activation (Byte)
system.mem_ctrls.dram.bytesPerActivate::stdev   395.116506                       # Bytes accessed per row activation (Byte)
system.mem_ctrls.dram.bytesPerActivate::0-127        30798     43.61%     43.61% # Bytes accessed per row activation (Byte)
system.mem_ctrls.dram.bytesPerActivate::128-255         8394     11.89%     55.50% # Bytes accessed per row activation (Byte)
system.mem_ctrls.dram.bytesPerActivate::256-383         8386     11.88%     67.37% # Bytes accessed per row activation (Byte)
system.mem_ctrls.dram.bytesPerActivate::384-511         1300      1.84%     69.22% # Bytes accessed per row activation (Byte)
system.mem_ctrls.dram.bytesPerActivate::512-639         1491      2.11%     71.33% # Bytes accessed per row activation (Byte)
system.mem_ctrls.dram.bytesPerActivate::640-767          773      1.09%     72.42% # Bytes accessed per row activation (Byte)
system.mem_ctrls.dram.bytesPerActivate::768-895         2816      3.99%     76.41% # Bytes accessed per row activation (Byte)
system.mem_ctrls.dram.bytesPerActivate::896-1023          712      1.01%     77.42% # Bytes accessed per row activation (Byte)
system.mem_ctrls.dram.bytesPerActivate::1024-1151        15947     22.58%    100.00% # Bytes accessed per row activation (Byte)
system.mem_ctrls.dram.bytesPerActivate::total        70617                       # Bytes accessed per row activation (Byte)
system.mem_ctrls.dram.bytesRead              25999040                       # Total bytes read (Byte)
system.mem_ctrls.dram.bytesWritten             613440                       # Total bytes written (Byte)
system.mem_ctrls.dram.avgRdBW             1175.465156                       # Average DRAM read bandwidth in MiBytes/s ((Byte/Second))
system.mem_ctrls.dram.avgWrBW               27.734768                       # Average DRAM write bandwidth in MiBytes/s ((Byte/Second))
system.mem_ctrls.dram.peakBW                 12800.00                       # Theoretical peak bandwidth in MiByte/s ((Byte/Second))
system.mem_ctrls.dram.busUtil                    9.40                       # Data bus utilization in percentage (Ratio)
system.mem_ctrls.dram.busUtilRead                9.18                       # Data bus utilization in percentage for reads (Ratio)
system.mem_ctrls.dram.busUtilWrite               0.22                       # Data bus utilization in percentage for writes (Ratio)
system.mem_ctrls.dram.pageHitRate               83.01                       # Row buffer hit rate, read and write combined (Ratio)
system.mem_ctrls.dram.power_state.pwrStateResidencyTicks::UNDEFINED  22118086500                       # Cumulative time (in ticks) in various power states (Tick)
system.mem_ctrls.dram.rank0.actEnergy       209559000                       # Energy for activate commands per rank (pJ) (Joule)
system.mem_ctrls.dram.rank0.preEnergy       111356685                       # Energy for precharge commands per rank (pJ) (Joule)
system.mem_ctrls.dram.rank0.readEnergy     2217241320                       # Energy for read commands per rank (pJ) (Joule)
system.mem_ctrls.dram.rank0.writeEnergy      23714460                       # Energy for write commands per rank (pJ) (Joule)
system.mem_ctrls.dram.rank0.refreshEnergy 1745577600.000000                       # Energy for refresh commands per rank (pJ) (Joule)
system.mem_ctrls.dram.rank0.actBackEnergy   9334144440                       # Energy for active background per rank (pJ) (Joule)
system.mem_ctrls.dram.rank0.preBackEnergy    633013440                       # Energy for precharge background per rank (pJ) (Joule)
system.mem_ctrls.dram.rank0.actPowerDownEnergy            0                       # Energy for active power-down per rank (pJ) (Joule)
system.mem_ctrls.dram.rank0.prePowerDownEnergy            0                       # Energy for precharge power-down per rank (pJ) (Joule)
system.mem_ctrls.dram.rank0.selfRefreshEnergy            0                       # Energy for self refresh per rank (pJ) (Joule)
system.mem_ctrls.dram.rank0.totalEnergy   14274606945                       # Total energy per rank (pJ) (Joule)
system.mem_ctrls.dram.rank0.averagePower   645.381640                       # Core power per rank (mW) (Watt)
system.mem_ctrls.dram.rank0.totalIdleTime            0                       # Total Idle time Per DRAM Rank (Tick)
system.mem_ctrls.dram.rank0.pwrStateTime::IDLE   1565848750                       # Time in different power states (Tick)
system.mem_ctrls.dram.rank0.pwrStateTime::REF    738400000                       # Time in different power states (Tick)
system.mem_ctrls.dram.rank0.pwrStateTime::SREF            0                       # Time in different power states (Tick)
system.mem_ctrls.dram.rank0.pwrStateTime::PRE_PDN            0                       # Time in different power states (Tick)
system.mem_ctrls.dram.rank0.pwrStateTime::ACT  19813837750                       # Time in different power states (Tick)
system.mem_ctrls.dram.rank0.pwrStateTime::ACT_PDN            0                       # Time in different power states (Tick)
system.mem_ctrls.dram.rank1.actEnergy       294746340                       # Energy for activate commands per rank (pJ) (Joule)
system.mem_ctrls.dram.rank1.preEnergy       156634830                       # Energy for precharge commands per rank (pJ) (Joule)
system.mem_ctrls.dram.rank1.readEnergy      683276580                       # Energy for read commands per rank (pJ) (Joule)
system.mem_ctrls.dram.rank1.writeEnergy      26319240                       # Energy for write commands per rank (pJ) (Joule)
system.mem_ctrls.dram.rank1.refreshEnergy 1745577600.000000                       # Energy for refresh commands per rank (pJ) (Joule)
system.mem_ctrls.dram.rank1.actBackEnergy   9414040770                       # Energy for active background per rank (pJ) (Joule)
system.mem_ctrls.dram.rank1.preBackEnergy    565732320                       # Energy for precharge background per rank (pJ) (Joule)
system.mem_ctrls.dram.rank1.actPowerDownEnergy            0                       # Energy for active power-down per rank (pJ) (Joule)
system.mem_ctrls.dram.rank1.prePowerDownEnergy            0                       # Energy for precharge power-down per rank (pJ) (Joule)
system.mem_ctrls.dram.rank1.selfRefreshEnergy            0                       # Energy for self refresh per rank (pJ) (Joule)
system.mem_ctrls.dram.rank1.totalEnergy   12886327680                       # Total energy per rank (pJ) (Joule)
system.mem_ctrls.dram.rank1.averagePower   582.614942                       # Core power per rank (mW) (Watt)
system.mem_ctrls.dram.rank1.totalIdleTime            0                       # Total Idle time Per DRAM Rank (Tick)
system.mem_ctrls.dram.rank1.pwrStateTime::IDLE   1384359750                       # Time in different power states (Tick)
system.mem_ctrls.dram.rank1.pwrStateTime::REF    738400000                       # Time in different power states (Tick)
system.mem_ctrls.dram.rank1.pwrStateTime::SREF            0                       # Time in different power states (Tick)
system.mem_ctrls.dram.rank1.pwrStateTime::PRE_PDN            0                       # Time in different power states (Tick)
system.mem_ctrls.dram.rank1.pwrStateTime::ACT  19995326750                       # Time in different power states (Tick)
system.mem_ctrls.dram.rank1.pwrStateTime::ACT_PDN            0                       # Time in different power states (Tick)
system.mem_ctrls.power_state.pwrStateResidencyTicks::UNDEFINED  22118086500                       # Cumulative time (in ticks) in various power states (Tick)
system.membus.transDist::ReadResp              469641                       # Transaction distribution (Count)
system.membus.transDist::WritebackDirty         68499                       # Transaction distribution (Count)
system.membus.transDist::WritebackClean         53862                       # Transaction distribution (Count)
system.membus.transDist::CleanEvict            397524                       # Transaction distribution (Count)
system.membus.transDist::ReadExReq              50808                       # Transaction distribution (Count)
system.membus.transDist::ReadExResp             50808                       # Transaction distribution (Count)
system.membus.transDist::ReadCleanReq           54362                       # Transaction distribution (Count)
system.membus.transDist::ReadSharedReq         415279                       # Transaction distribution (Count)
system.membus.pktCount_system.cpu.icache.mem_side_port::system.mem_ctrls.port       162586                       # Packet count per connected requestor and responder (Count)
system.membus.pktCount_system.cpu.icache.mem_side_port::total       162586                       # Packet count per connected requestor and responder (Count)
system.membus.pktCount_system.cpu.dcache.mem_side_port::system.mem_ctrls.port      1398197                       # Packet count per connected requestor and responder (Count)
system.membus.pktCount_system.cpu.dcache.mem_side_port::total      1398197                       # Packet count per connected requestor and responder (Count)
system.membus.pktCount::total                 1560783                       # Packet count per connected requestor and responder (Count)
system.membus.pktSize_system.cpu.icache.mem_side_port::system.mem_ctrls.port      6926336                       # Cumulative packet size per connected requestor and responder (Byte)
system.membus.pktSize_system.cpu.icache.mem_side_port::total      6926336                       # Cumulative packet size per connected requestor and responder (Byte)
system.membus.pktSize_system.cpu.dcache.mem_side_port::system.mem_ctrls.port     34213504                       # Cumulative packet size per connected requestor and responder (Byte)
system.membus.pktSize_system.cpu.dcache.mem_side_port::total     34213504                       # Cumulative packet size per connected requestor and responder (Byte)
system.membus.pktSize::total                 41139840                       # Cumulative packet size per connected requestor and responder (Byte)
system.membus.snoops                                0                       # Total snoops (Count)
system.membus.snoopTraffic                          0                       # Total snoop traffic (Byte)
system.membus.snoopFanout::samples             520449                       # Request fanout histogram (Count)
system.membus.snoopFanout::mean              0.000008                       # Request fanout histogram (Count)
system.membus.snoopFanout::stdev             0.002772                       # Request fanout histogram (Count)
system.membus.snoopFanout::underflows               0      0.00%      0.00% # Request fanout histogram (Count)
system.membus.snoopFanout::0                   520445    100.00%    100.00% # Request fanout histogram (Count)
system.membus.snoopFanout::1                        4      0.00%    100.00% # Request fanout histogram (Count)
system.membus.snoopFanout::2                        0      0.00%    100.00% # Request fanout histogram (Count)
system.membus.snoopFanout::3                        0      0.00%    100.00% # Request fanout histogram (Count)
system.membus.snoopFanout::4                        0      0.00%    100.00% # Request fanout histogram (Count)
system.membus.snoopFanout::overflows                0      0.00%    100.00% # Request fanout histogram (Count)
system.membus.snoopFanout::min_value                0                       # Request fanout histogram (Count)
system.membus.snoopFanout::max_value                1                       # Request fanout histogram (Count)
system.membus.snoopFanout::total               520449                       # Request fanout histogram (Count)
system.membus.power_state.pwrStateResidencyTicks::UNDEFINED  22118086500                       # Cumulative time (in ticks) in various power states (Tick)
system.membus.reqLayer2.occupancy          1644877500                       # Layer occupancy (ticks) (Tick)
system.membus.reqLayer2.utilization               0.1                       # Layer utilization (Ratio)
system.membus.respLayer1.occupancy          272246237                       # Layer occupancy (ticks) (Tick)
system.membus.respLayer1.utilization              0.0                       # Layer utilization (Ratio)
system.membus.respLayer2.occupancy         2453858000                       # Layer occupancy (ticks) (Tick)
system.membus.respLayer2.utilization              0.1                       # Layer utilization (Ratio)
system.membus.snoop_filter.totRequests        1040334                       # Total number of requests made to the snoop filter. (Count)
system.membus.snoop_filter.hitSingleRequests       519885                       # Number of requests hitting in the snoop filter with a single holder of the requested data. (Count)
system.membus.snoop_filter.hitMultiRequests            4                       # Number of requests hitting in the snoop filter with multiple (>1) holders of the requested data. (Count)
system.membus.snoop_filter.totSnoops                0                       # Total number of snoops made to the snoop filter. (Count)
system.membus.snoop_filter.hitSingleSnoops            0                       # Number of snoops hitting in the snoop filter with a single holder of the requested data. (Count)
system.membus.snoop_filter.hitMultiSnoops            0                       # Number of snoops hitting in the snoop filter with multiple (>1) holders of the requested data. (Count)
system.voltage_domain.voltage                       1                       # Voltage in Volts (Volt)
system.workload.inst.arm                            0                       # number of arm instructions executed (Count)
system.workload.inst.quiesce                        0                       # number of quiesce instructions executed (Count)

---------- End Simulation Statistics   ----------
