
---------- Begin Simulation Statistics ----------
simSeconds                                   0.064386                       # Number of seconds simulated (Second)
simTicks                                  64385758000                       # Number of ticks simulated (Tick)
finalTick                                 64385758000                       # Number of ticks from beginning of simulation (restored from checkpoints and never reset) (Tick)
simFreq                                  1000000000000                       # The number of ticks per simulated second ((Tick/Second))
hostSeconds                                    139.58                       # Real time elapsed on the host (Second)
hostTickRate                                461268657                       # The number of ticks simulated per host second (ticks/s) ((Tick/Second))
hostMemory                                     663856                       # Number of bytes of host memory used (Byte)
simInsts                                     41293604                       # Number of instructions simulated (Count)
simOps                                       78319975                       # Number of ops (including micro ops) simulated (Count)
hostInstRate                                   295833                       # Simulator instruction rate (inst/s) ((Count/Second))
hostOpRate                                     561095                       # Simulator op (including micro ops) rate (op/s) ((Count/Second))
system.clk_domain.clock                          1000                       # Clock period in ticks (Tick)
system.cpu.numCycles                        128771516                       # Number of cpu cycles simulated (Cycle)
system.cpu.numWorkItemsStarted                      0                       # Number of work items this cpu started (Count)
system.cpu.numWorkItemsCompleted                    0                       # Number of work items this cpu completed (Count)
system.cpu.numInsts                          41293604                       # Number of instructions committed (Count)
system.cpu.numOps                            78319975                       # Number of ops (including micro ops) committed (Count)
system.cpu.numDiscardedOps                   19642560                       # Number of ops (including micro ops) which were discarded before commit (Count)
system.cpu.numFetchSuspends                         0                       # Number of times Execute suspended instruction fetching (Count)
system.cpu.cpi                               3.118437                       # CPI: cycles per instruction ((Cycle/Count))
system.cpu.ipc                               0.320673                       # IPC: instructions per cycle ((Count/Cycle))
system.cpu.committedInstType_0::No_OpClass       850890      1.09%      1.09% # Class of committed instruction (Count)
system.cpu.committedInstType_0::IntAlu       57167308     72.99%     74.08% # Class of committed instruction (Count)
system.cpu.committedInstType_0::IntMult         89549      0.11%     74.19% # Class of committed instruction (Count)
system.cpu.committedInstType_0::IntDiv         882475      1.13%     75.32% # Class of committed instruction (Count)
system.cpu.committedInstType_0::FloatAdd       880794      1.12%     76.44% # Class of committed instruction (Count)
system.cpu.committedInstType_0::FloatCmp            0      0.00%     76.44% # Class of committed instruction (Count)
system.cpu.committedInstType_0::FloatCvt            0      0.00%     76.44% # Class of committed instruction (Count)
system.cpu.committedInstType_0::FloatMult            0      0.00%     76.44% # Class of committed instruction (Count)
system.cpu.committedInstType_0::FloatMultAcc            0      0.00%     76.44% # Class of committed instruction (Count)
system.cpu.committedInstType_0::FloatDiv            0      0.00%     76.44% # Class of committed instruction (Count)
system.cpu.committedInstType_0::FloatMisc            0      0.00%     76.44% # Class of committed instruction (Count)
system.cpu.committedInstType_0::FloatSqrt            0      0.00%     76.44% # Class of committed instruction (Count)
system.cpu.committedInstType_0::SimdAdd             0      0.00%     76.44% # Class of committed instruction (Count)
system.cpu.committedInstType_0::SimdAddAcc            0      0.00%     76.44% # Class of committed instruction (Count)
system.cpu.committedInstType_0::SimdAlu        287296      0.37%     76.81% # Class of committed instruction (Count)
system.cpu.committedInstType_0::SimdCmp           336      0.00%     76.81% # Class of committed instruction (Count)
system.cpu.committedInstType_0::SimdCvt        164462      0.21%     77.02% # Class of committed instruction (Count)
system.cpu.committedInstType_0::SimdMisc       258871      0.33%     77.35% # Class of committed instruction (Count)
system.cpu.committedInstType_0::SimdMult            0      0.00%     77.35% # Class of committed instruction (Count)
system.cpu.committedInstType_0::SimdMultAcc            0      0.00%     77.35% # Class of committed instruction (Count)
system.cpu.committedInstType_0::SimdShift            0      0.00%     77.35% # Class of committed instruction (Count)
system.cpu.committedInstType_0::SimdShiftAcc            0      0.00%     77.35% # Class of committed instruction (Count)
system.cpu.committedInstType_0::SimdDiv             0      0.00%     77.35% # Class of committed instruction (Count)
system.cpu.committedInstType_0::SimdSqrt            0      0.00%     77.35% # Class of committed instruction (Count)
system.cpu.committedInstType_0::SimdFloatAdd       278528      0.36%     77.71% # Class of committed instruction (Count)
system.cpu.committedInstType_0::SimdFloatAlu            0      0.00%     77.71% # Class of committed instruction (Count)
system.cpu.committedInstType_0::SimdFloatCmp            0      0.00%     77.71% # Class of committed instruction (Count)
system.cpu.committedInstType_0::SimdFloatCvt        16384      0.02%     77.73% # Class of committed instruction (Count)
system.cpu.committedInstType_0::SimdFloatDiv            0      0.00%     77.73% # Class of committed instruction (Count)
system.cpu.committedInstType_0::SimdFloatMisc            0      0.00%     77.73% # Class of committed instruction (Count)
system.cpu.committedInstType_0::SimdFloatMult       262144      0.33%     78.06% # Class of committed instruction (Count)
system.cpu.committedInstType_0::SimdFloatMultAcc            0      0.00%     78.06% # Class of committed instruction (Count)
system.cpu.committedInstType_0::SimdFloatSqrt            0      0.00%     78.06% # Class of committed instruction (Count)
system.cpu.committedInstType_0::SimdReduceAdd            0      0.00%     78.06% # Class of committed instruction (Count)
system.cpu.committedInstType_0::SimdReduceAlu            0      0.00%     78.06% # Class of committed instruction (Count)
system.cpu.committedInstType_0::SimdReduceCmp            0      0.00%     78.06% # Class of committed instruction (Count)
system.cpu.committedInstType_0::SimdFloatReduceAdd            0      0.00%     78.06% # Class of committed instruction (Count)
system.cpu.committedInstType_0::SimdFloatReduceCmp            0      0.00%     78.06% # Class of committed instruction (Count)
system.cpu.committedInstType_0::SimdAes             0      0.00%     78.06% # Class of committed instruction (Count)
system.cpu.committedInstType_0::SimdAesMix            0      0.00%     78.06% # Class of committed instruction (Count)
system.cpu.committedInstType_0::SimdSha1Hash            0      0.00%     78.06% # Class of committed instruction (Count)
system.cpu.committedInstType_0::SimdSha1Hash2            0      0.00%     78.06% # Class of committed instruction (Count)
system.cpu.committedInstType_0::SimdSha256Hash            0      0.00%     78.06% # Class of committed instruction (Count)
system.cpu.committedInstType_0::SimdSha256Hash2            0      0.00%     78.06% # Class of committed instruction (Count)
system.cpu.committedInstType_0::SimdShaSigma2            0      0.00%     78.06% # Class of committed instruction (Count)
system.cpu.committedInstType_0::SimdShaSigma3            0      0.00%     78.06% # Class of committed instruction (Count)
system.cpu.committedInstType_0::SimdPredAlu            0      0.00%     78.06% # Class of committed instruction (Count)
system.cpu.committedInstType_0::MemRead       9777521     12.48%     90.55% # Class of committed instruction (Count)
system.cpu.committedInstType_0::MemWrite      5308850      6.78%     97.33% # Class of committed instruction (Count)
system.cpu.committedInstType_0::FloatMemRead      1340356      1.71%     99.04% # Class of committed instruction (Count)
system.cpu.committedInstType_0::FloatMemWrite       754211      0.96%    100.00% # Class of committed instruction (Count)
system.cpu.committedInstType_0::IprAccess            0      0.00%    100.00% # Class of committed instruction (Count)
system.cpu.committedInstType_0::InstPrefetch            0      0.00%    100.00% # Class of committed instruction (Count)
system.cpu.committedInstType_0::total        78319975                       # Class of committed instruction (Count)
system.cpu.branchPred.lookups                       0                       # Number of BP lookups (Count)
system.cpu.branchPred.condPredicted                 0                       # Number of conditional branches predicted (Count)
system.cpu.branchPred.condIncorrect                 0                       # Number of conditional branches incorrect (Count)
system.cpu.branchPred.BTBLookups                    0                       # Number of BTB lookups (Count)
system.cpu.branchPred.BTBHits                       0                       # Number of BTB hits (Count)
system.cpu.branchPred.BTBHitRatio                 nan                       # BTB Hit Ratio (Ratio)
system.cpu.branchPred.RASUsed                       0                       # Number of times the RAS was used to get a target. (Count)
system.cpu.branchPred.RASIncorrect                  0                       # Number of incorrect RAS predictions. (Count)
system.cpu.branchPred.indirectLookups               0                       # Number of indirect predictor lookups. (Count)
system.cpu.branchPred.indirectHits                  0                       # Number of indirect target hits. (Count)
system.cpu.branchPred.indirectMisses                0                       # Number of indirect misses. (Count)
system.cpu.branchPred.indirectMispredicted            0                       # Number of mispredicted indirect branches. (Count)
system.cpu.dcache.demandHits::cpu.data       19007239                       # number of demand (read+write) hits (Count)
system.cpu.dcache.demandHits::total          19007239                       # number of demand (read+write) hits (Count)
system.cpu.dcache.overallHits::cpu.data      19007239                       # number of overall hits (Count)
system.cpu.dcache.overallHits::total         19007239                       # number of overall hits (Count)
system.cpu.dcache.demandMisses::cpu.data        27348                       # number of demand (read+write) misses (Count)
system.cpu.dcache.demandMisses::total           27348                       # number of demand (read+write) misses (Count)
system.cpu.dcache.overallMisses::cpu.data        27348                       # number of overall misses (Count)
system.cpu.dcache.overallMisses::total          27348                       # number of overall misses (Count)
system.cpu.dcache.demandMissLatency::cpu.data   1556879000                       # number of demand (read+write) miss ticks (Tick)
system.cpu.dcache.demandMissLatency::total   1556879000                       # number of demand (read+write) miss ticks (Tick)
system.cpu.dcache.overallMissLatency::cpu.data   1556879000                       # number of overall miss ticks (Tick)
system.cpu.dcache.overallMissLatency::total   1556879000                       # number of overall miss ticks (Tick)
system.cpu.dcache.demandAccesses::cpu.data     19034587                       # number of demand (read+write) accesses (Count)
system.cpu.dcache.demandAccesses::total      19034587                       # number of demand (read+write) accesses (Count)
system.cpu.dcache.overallAccesses::cpu.data     19034587                       # number of overall (read+write) accesses (Count)
system.cpu.dcache.overallAccesses::total     19034587                       # number of overall (read+write) accesses (Count)
system.cpu.dcache.demandMissRate::cpu.data     0.001437                       # miss rate for demand accesses (Ratio)
system.cpu.dcache.demandMissRate::total      0.001437                       # miss rate for demand accesses (Ratio)
system.cpu.dcache.overallMissRate::cpu.data     0.001437                       # miss rate for overall accesses (Ratio)
system.cpu.dcache.overallMissRate::total     0.001437                       # miss rate for overall accesses (Ratio)
system.cpu.dcache.demandAvgMissLatency::cpu.data 56928.440837                       # average overall miss latency ((Cycle/Count))
system.cpu.dcache.demandAvgMissLatency::total 56928.440837                       # average overall miss latency ((Cycle/Count))
system.cpu.dcache.overallAvgMissLatency::cpu.data 56928.440837                       # average overall miss latency ((Cycle/Count))
system.cpu.dcache.overallAvgMissLatency::total 56928.440837                       # average overall miss latency ((Cycle/Count))
system.cpu.dcache.blockedCycles::no_mshrs            0                       # number of cycles access was blocked (Cycle)
system.cpu.dcache.blockedCycles::no_targets            0                       # number of cycles access was blocked (Cycle)
system.cpu.dcache.blockedCauses::no_mshrs            0                       # number of times access was blocked (Count)
system.cpu.dcache.blockedCauses::no_targets            0                       # number of times access was blocked (Count)
system.cpu.dcache.avgBlocked::no_mshrs            nan                       # average number of cycles each access was blocked ((Cycle/Count))
system.cpu.dcache.avgBlocked::no_targets          nan                       # average number of cycles each access was blocked ((Cycle/Count))
system.cpu.dcache.writebacks::writebacks        10965                       # number of writebacks (Count)
system.cpu.dcache.writebacks::total             10965                       # number of writebacks (Count)
system.cpu.dcache.demandMshrHits::cpu.data         5329                       # number of demand (read+write) MSHR hits (Count)
system.cpu.dcache.demandMshrHits::total          5329                       # number of demand (read+write) MSHR hits (Count)
system.cpu.dcache.overallMshrHits::cpu.data         5329                       # number of overall MSHR hits (Count)
system.cpu.dcache.overallMshrHits::total         5329                       # number of overall MSHR hits (Count)
system.cpu.dcache.demandMshrMisses::cpu.data        22019                       # number of demand (read+write) MSHR misses (Count)
system.cpu.dcache.demandMshrMisses::total        22019                       # number of demand (read+write) MSHR misses (Count)
system.cpu.dcache.overallMshrMisses::cpu.data        22019                       # number of overall MSHR misses (Count)
system.cpu.dcache.overallMshrMisses::total        22019                       # number of overall MSHR misses (Count)
system.cpu.dcache.demandMshrMissLatency::cpu.data   1178202500                       # number of demand (read+write) MSHR miss ticks (Tick)
system.cpu.dcache.demandMshrMissLatency::total   1178202500                       # number of demand (read+write) MSHR miss ticks (Tick)
system.cpu.dcache.overallMshrMissLatency::cpu.data   1178202500                       # number of overall MSHR miss ticks (Tick)
system.cpu.dcache.overallMshrMissLatency::total   1178202500                       # number of overall MSHR miss ticks (Tick)
system.cpu.dcache.demandMshrMissRate::cpu.data     0.001157                       # mshr miss ratio for demand accesses (Ratio)
system.cpu.dcache.demandMshrMissRate::total     0.001157                       # mshr miss ratio for demand accesses (Ratio)
system.cpu.dcache.overallMshrMissRate::cpu.data     0.001157                       # mshr miss ratio for overall accesses (Ratio)
system.cpu.dcache.overallMshrMissRate::total     0.001157                       # mshr miss ratio for overall accesses (Ratio)
system.cpu.dcache.demandAvgMshrMissLatency::cpu.data 53508.447250                       # average overall mshr miss latency ((Cycle/Count))
system.cpu.dcache.demandAvgMshrMissLatency::total 53508.447250                       # average overall mshr miss latency ((Cycle/Count))
system.cpu.dcache.overallAvgMshrMissLatency::cpu.data 53508.447250                       # average overall mshr miss latency ((Cycle/Count))
system.cpu.dcache.overallAvgMshrMissLatency::total 53508.447250                       # average overall mshr miss latency ((Cycle/Count))
system.cpu.dcache.replacements                  20995                       # number of replacements (Count)
system.cpu.dcache.ReadReq.hits::cpu.data     12953133                       # number of ReadReq hits (Count)
system.cpu.dcache.ReadReq.hits::total        12953133                       # number of ReadReq hits (Count)
system.cpu.dcache.ReadReq.misses::cpu.data        18429                       # number of ReadReq misses (Count)
system.cpu.dcache.ReadReq.misses::total         18429                       # number of ReadReq misses (Count)
system.cpu.dcache.ReadReq.missLatency::cpu.data   1135802500                       # number of ReadReq miss ticks (Tick)
system.cpu.dcache.ReadReq.missLatency::total   1135802500                       # number of ReadReq miss ticks (Tick)
system.cpu.dcache.ReadReq.accesses::cpu.data     12971562                       # number of ReadReq accesses(hits+misses) (Count)
system.cpu.dcache.ReadReq.accesses::total     12971562                       # number of ReadReq accesses(hits+misses) (Count)
system.cpu.dcache.ReadReq.missRate::cpu.data     0.001421                       # miss rate for ReadReq accesses (Ratio)
system.cpu.dcache.ReadReq.missRate::total     0.001421                       # miss rate for ReadReq accesses (Ratio)
system.cpu.dcache.ReadReq.avgMissLatency::cpu.data 61631.260513                       # average ReadReq miss latency ((Tick/Count))
system.cpu.dcache.ReadReq.avgMissLatency::total 61631.260513                       # average ReadReq miss latency ((Tick/Count))
system.cpu.dcache.ReadReq.mshrHits::cpu.data         3685                       # number of ReadReq MSHR hits (Count)
system.cpu.dcache.ReadReq.mshrHits::total         3685                       # number of ReadReq MSHR hits (Count)
system.cpu.dcache.ReadReq.mshrMisses::cpu.data        14744                       # number of ReadReq MSHR misses (Count)
system.cpu.dcache.ReadReq.mshrMisses::total        14744                       # number of ReadReq MSHR misses (Count)
system.cpu.dcache.ReadReq.mshrMissLatency::cpu.data    864141500                       # number of ReadReq MSHR miss ticks (Tick)
system.cpu.dcache.ReadReq.mshrMissLatency::total    864141500                       # number of ReadReq MSHR miss ticks (Tick)
system.cpu.dcache.ReadReq.mshrMissRate::cpu.data     0.001137                       # mshr miss rate for ReadReq accesses (Ratio)
system.cpu.dcache.ReadReq.mshrMissRate::total     0.001137                       # mshr miss rate for ReadReq accesses (Ratio)
system.cpu.dcache.ReadReq.avgMshrMissLatency::cpu.data 58609.705643                       # average ReadReq mshr miss latency ((Tick/Count))
system.cpu.dcache.ReadReq.avgMshrMissLatency::total 58609.705643                       # average ReadReq mshr miss latency ((Tick/Count))
system.cpu.dcache.WriteReq.hits::cpu.data      6054106                       # number of WriteReq hits (Count)
system.cpu.dcache.WriteReq.hits::total        6054106                       # number of WriteReq hits (Count)
system.cpu.dcache.WriteReq.misses::cpu.data         8919                       # number of WriteReq misses (Count)
system.cpu.dcache.WriteReq.misses::total         8919                       # number of WriteReq misses (Count)
system.cpu.dcache.WriteReq.missLatency::cpu.data    421076500                       # number of WriteReq miss ticks (Tick)
system.cpu.dcache.WriteReq.missLatency::total    421076500                       # number of WriteReq miss ticks (Tick)
system.cpu.dcache.WriteReq.accesses::cpu.data      6063025                       # number of WriteReq accesses(hits+misses) (Count)
system.cpu.dcache.WriteReq.accesses::total      6063025                       # number of WriteReq accesses(hits+misses) (Count)
system.cpu.dcache.WriteReq.missRate::cpu.data     0.001471                       # miss rate for WriteReq accesses (Ratio)
system.cpu.dcache.WriteReq.missRate::total     0.001471                       # miss rate for WriteReq accesses (Ratio)
system.cpu.dcache.WriteReq.avgMissLatency::cpu.data 47211.178383                       # average WriteReq miss latency ((Tick/Count))
system.cpu.dcache.WriteReq.avgMissLatency::total 47211.178383                       # average WriteReq miss latency ((Tick/Count))
system.cpu.dcache.WriteReq.mshrHits::cpu.data         1644                       # number of WriteReq MSHR hits (Count)
system.cpu.dcache.WriteReq.mshrHits::total         1644                       # number of WriteReq MSHR hits (Count)
system.cpu.dcache.WriteReq.mshrMisses::cpu.data         7275                       # number of WriteReq MSHR misses (Count)
system.cpu.dcache.WriteReq.mshrMisses::total         7275                       # number of WriteReq MSHR misses (Count)
system.cpu.dcache.WriteReq.mshrMissLatency::cpu.data    314061000                       # number of WriteReq MSHR miss ticks (Tick)
system.cpu.dcache.WriteReq.mshrMissLatency::total    314061000                       # number of WriteReq MSHR miss ticks (Tick)
system.cpu.dcache.WriteReq.mshrMissRate::cpu.data     0.001200                       # mshr miss rate for WriteReq accesses (Ratio)
system.cpu.dcache.WriteReq.mshrMissRate::total     0.001200                       # mshr miss rate for WriteReq accesses (Ratio)
system.cpu.dcache.WriteReq.avgMshrMissLatency::cpu.data 43169.896907                       # average WriteReq mshr miss latency ((Tick/Count))
system.cpu.dcache.WriteReq.avgMshrMissLatency::total 43169.896907                       # average WriteReq mshr miss latency ((Tick/Count))
system.cpu.dcache.power_state.pwrStateResidencyTicks::UNDEFINED  64385758000                       # Cumulative time (in ticks) in various power states (Tick)
system.cpu.dcache.tags.tagsInUse          1023.004473                       # Average ticks per tags in use ((Tick/Count))
system.cpu.dcache.tags.totalRefs             19029258                       # Total number of references to valid blocks. (Count)
system.cpu.dcache.tags.sampledRefs              22019                       # Sample count of references to valid blocks. (Count)
system.cpu.dcache.tags.avgRefs             864.219901                       # Average number of references to valid blocks. ((Count/Count))
system.cpu.dcache.tags.warmupTick              145000                       # The tick when the warmup percentage was hit. (Tick)
system.cpu.dcache.tags.occupancies::cpu.data  1023.004473                       # Average occupied blocks per tick, per requestor ((Count/Tick))
system.cpu.dcache.tags.avgOccs::cpu.data     0.999028                       # Average percentage of cache occupancy ((Ratio/Tick))
system.cpu.dcache.tags.avgOccs::total        0.999028                       # Average percentage of cache occupancy ((Ratio/Tick))
system.cpu.dcache.tags.occupanciesTaskId::1024         1024                       # Occupied blocks per task id (Count)
system.cpu.dcache.tags.ageTaskId_1024::0           28                       # Occupied blocks per task id, per block age (Count)
system.cpu.dcache.tags.ageTaskId_1024::1          417                       # Occupied blocks per task id, per block age (Count)
system.cpu.dcache.tags.ageTaskId_1024::2          521                       # Occupied blocks per task id, per block age (Count)
system.cpu.dcache.tags.ageTaskId_1024::3           55                       # Occupied blocks per task id, per block age (Count)
system.cpu.dcache.tags.ageTaskId_1024::4            3                       # Occupied blocks per task id, per block age (Count)
system.cpu.dcache.tags.ratioOccsTaskId::1024            1                       # Ratio of occupied blocks and all blocks, per task id (Ratio)
system.cpu.dcache.tags.tagAccesses           38091193                       # Number of tag accesses (Count)
system.cpu.dcache.tags.dataAccesses          38091193                       # Number of data accesses (Count)
system.cpu.dcache.tags.power_state.pwrStateResidencyTicks::UNDEFINED  64385758000                       # Cumulative time (in ticks) in various power states (Tick)
system.cpu.dtb_walker_cache.blockedCycles::no_mshrs            0                       # number of cycles access was blocked (Cycle)
system.cpu.dtb_walker_cache.blockedCycles::no_targets            0                       # number of cycles access was blocked (Cycle)
system.cpu.dtb_walker_cache.blockedCauses::no_mshrs            0                       # number of times access was blocked (Count)
system.cpu.dtb_walker_cache.blockedCauses::no_targets            0                       # number of times access was blocked (Count)
system.cpu.dtb_walker_cache.avgBlocked::no_mshrs          nan                       # average number of cycles each access was blocked ((Cycle/Count))
system.cpu.dtb_walker_cache.avgBlocked::no_targets          nan                       # average number of cycles each access was blocked ((Cycle/Count))
system.cpu.dtb_walker_cache.replacements            0                       # number of replacements (Count)
system.cpu.dtb_walker_cache.power_state.pwrStateResidencyTicks::UNDEFINED  64385758000                       # Cumulative time (in ticks) in various power states (Tick)
system.cpu.dtb_walker_cache.tags.tagsInUse            0                       # Average ticks per tags in use ((Tick/Count))
system.cpu.dtb_walker_cache.tags.totalRefs            0                       # Total number of references to valid blocks. (Count)
system.cpu.dtb_walker_cache.tags.sampledRefs            0                       # Sample count of references to valid blocks. (Count)
system.cpu.dtb_walker_cache.tags.avgRefs          nan                       # Average number of references to valid blocks. ((Count/Count))
system.cpu.dtb_walker_cache.tags.warmupTick            0                       # The tick when the warmup percentage was hit. (Tick)
system.cpu.dtb_walker_cache.tags.tagAccesses            0                       # Number of tag accesses (Count)
system.cpu.dtb_walker_cache.tags.dataAccesses            0                       # Number of data accesses (Count)
system.cpu.dtb_walker_cache.tags.power_state.pwrStateResidencyTicks::UNDEFINED  64385758000                       # Cumulative time (in ticks) in various power states (Tick)
system.cpu.fetch2.intInstructions                  10                       # Number of integer instructions successfully decoded (Count)
system.cpu.fetch2.fpInstructions                    0                       # Number of floating point instructions successfully decoded (Count)
system.cpu.fetch2.vecInstructions                   0                       # Number of SIMD instructions successfully decoded (Count)
system.cpu.fetch2.loadInstructions                  0                       # Number of memory load instructions successfully decoded (Count)
system.cpu.fetch2.storeInstructions                 0                       # Number of memory store instructions successfully decoded (Count)
system.cpu.fetch2.amoInstructions                   0                       # Number of memory atomic instructions successfully decoded (Count)
system.cpu.icache.demandHits::cpu.inst       16748249                       # number of demand (read+write) hits (Count)
system.cpu.icache.demandHits::total          16748249                       # number of demand (read+write) hits (Count)
system.cpu.icache.overallHits::cpu.inst      16748249                       # number of overall hits (Count)
system.cpu.icache.overallHits::total         16748249                       # number of overall hits (Count)
system.cpu.icache.demandMisses::cpu.inst       113791                       # number of demand (read+write) misses (Count)
system.cpu.icache.demandMisses::total          113791                       # number of demand (read+write) misses (Count)
system.cpu.icache.overallMisses::cpu.inst       113791                       # number of overall misses (Count)
system.cpu.icache.overallMisses::total         113791                       # number of overall misses (Count)
system.cpu.icache.demandMissLatency::cpu.inst   2731170500                       # number of demand (read+write) miss ticks (Tick)
system.cpu.icache.demandMissLatency::total   2731170500                       # number of demand (read+write) miss ticks (Tick)
system.cpu.icache.overallMissLatency::cpu.inst   2731170500                       # number of overall miss ticks (Tick)
system.cpu.icache.overallMissLatency::total   2731170500                       # number of overall miss ticks (Tick)
system.cpu.icache.demandAccesses::cpu.inst     16862040                       # number of demand (read+write) accesses (Count)
system.cpu.icache.demandAccesses::total      16862040                       # number of demand (read+write) accesses (Count)
system.cpu.icache.overallAccesses::cpu.inst     16862040                       # number of overall (read+write) accesses (Count)
system.cpu.icache.overallAccesses::total     16862040                       # number of overall (read+write) accesses (Count)
system.cpu.icache.demandMissRate::cpu.inst     0.006748                       # miss rate for demand accesses (Ratio)
system.cpu.icache.demandMissRate::total      0.006748                       # miss rate for demand accesses (Ratio)
system.cpu.icache.overallMissRate::cpu.inst     0.006748                       # miss rate for overall accesses (Ratio)
system.cpu.icache.overallMissRate::total     0.006748                       # miss rate for overall accesses (Ratio)
system.cpu.icache.demandAvgMissLatency::cpu.inst 24001.638970                       # average overall miss latency ((Cycle/Count))
system.cpu.icache.demandAvgMissLatency::total 24001.638970                       # average overall miss latency ((Cycle/Count))
system.cpu.icache.overallAvgMissLatency::cpu.inst 24001.638970                       # average overall miss latency ((Cycle/Count))
system.cpu.icache.overallAvgMissLatency::total 24001.638970                       # average overall miss latency ((Cycle/Count))
system.cpu.icache.blockedCycles::no_mshrs            0                       # number of cycles access was blocked (Cycle)
system.cpu.icache.blockedCycles::no_targets            0                       # number of cycles access was blocked (Cycle)
system.cpu.icache.blockedCauses::no_mshrs            0                       # number of times access was blocked (Count)
system.cpu.icache.blockedCauses::no_targets            0                       # number of times access was blocked (Count)
system.cpu.icache.avgBlocked::no_mshrs            nan                       # average number of cycles each access was blocked ((Cycle/Count))
system.cpu.icache.avgBlocked::no_targets          nan                       # average number of cycles each access was blocked ((Cycle/Count))
system.cpu.icache.writebacks::writebacks       113280                       # number of writebacks (Count)
system.cpu.icache.writebacks::total            113280                       # number of writebacks (Count)
system.cpu.icache.demandMshrMisses::cpu.inst       113791                       # number of demand (read+write) MSHR misses (Count)
system.cpu.icache.demandMshrMisses::total       113791                       # number of demand (read+write) MSHR misses (Count)
system.cpu.icache.overallMshrMisses::cpu.inst       113791                       # number of overall MSHR misses (Count)
system.cpu.icache.overallMshrMisses::total       113791                       # number of overall MSHR misses (Count)
system.cpu.icache.demandMshrMissLatency::cpu.inst   2617380500                       # number of demand (read+write) MSHR miss ticks (Tick)
system.cpu.icache.demandMshrMissLatency::total   2617380500                       # number of demand (read+write) MSHR miss ticks (Tick)
system.cpu.icache.overallMshrMissLatency::cpu.inst   2617380500                       # number of overall MSHR miss ticks (Tick)
system.cpu.icache.overallMshrMissLatency::total   2617380500                       # number of overall MSHR miss ticks (Tick)
system.cpu.icache.demandMshrMissRate::cpu.inst     0.006748                       # mshr miss ratio for demand accesses (Ratio)
system.cpu.icache.demandMshrMissRate::total     0.006748                       # mshr miss ratio for demand accesses (Ratio)
system.cpu.icache.overallMshrMissRate::cpu.inst     0.006748                       # mshr miss ratio for overall accesses (Ratio)
system.cpu.icache.overallMshrMissRate::total     0.006748                       # mshr miss ratio for overall accesses (Ratio)
system.cpu.icache.demandAvgMshrMissLatency::cpu.inst 23001.647758                       # average overall mshr miss latency ((Cycle/Count))
system.cpu.icache.demandAvgMshrMissLatency::total 23001.647758                       # average overall mshr miss latency ((Cycle/Count))
system.cpu.icache.overallAvgMshrMissLatency::cpu.inst 23001.647758                       # average overall mshr miss latency ((Cycle/Count))
system.cpu.icache.overallAvgMshrMissLatency::total 23001.647758                       # average overall mshr miss latency ((Cycle/Count))
system.cpu.icache.replacements                 113280                       # number of replacements (Count)
system.cpu.icache.ReadReq.hits::cpu.inst     16748249                       # number of ReadReq hits (Count)
system.cpu.icache.ReadReq.hits::total        16748249                       # number of ReadReq hits (Count)
system.cpu.icache.ReadReq.misses::cpu.inst       113791                       # number of ReadReq misses (Count)
system.cpu.icache.ReadReq.misses::total        113791                       # number of ReadReq misses (Count)
system.cpu.icache.ReadReq.missLatency::cpu.inst   2731170500                       # number of ReadReq miss ticks (Tick)
system.cpu.icache.ReadReq.missLatency::total   2731170500                       # number of ReadReq miss ticks (Tick)
system.cpu.icache.ReadReq.accesses::cpu.inst     16862040                       # number of ReadReq accesses(hits+misses) (Count)
system.cpu.icache.ReadReq.accesses::total     16862040                       # number of ReadReq accesses(hits+misses) (Count)
system.cpu.icache.ReadReq.missRate::cpu.inst     0.006748                       # miss rate for ReadReq accesses (Ratio)
system.cpu.icache.ReadReq.missRate::total     0.006748                       # miss rate for ReadReq accesses (Ratio)
system.cpu.icache.ReadReq.avgMissLatency::cpu.inst 24001.638970                       # average ReadReq miss latency ((Tick/Count))
system.cpu.icache.ReadReq.avgMissLatency::total 24001.638970                       # average ReadReq miss latency ((Tick/Count))
system.cpu.icache.ReadReq.mshrMisses::cpu.inst       113791                       # number of ReadReq MSHR misses (Count)
system.cpu.icache.ReadReq.mshrMisses::total       113791                       # number of ReadReq MSHR misses (Count)
system.cpu.icache.ReadReq.mshrMissLatency::cpu.inst   2617380500                       # number of ReadReq MSHR miss ticks (Tick)
system.cpu.icache.ReadReq.mshrMissLatency::total   2617380500                       # number of ReadReq MSHR miss ticks (Tick)
system.cpu.icache.ReadReq.mshrMissRate::cpu.inst     0.006748                       # mshr miss rate for ReadReq accesses (Ratio)
system.cpu.icache.ReadReq.mshrMissRate::total     0.006748                       # mshr miss rate for ReadReq accesses (Ratio)
system.cpu.icache.ReadReq.avgMshrMissLatency::cpu.inst 23001.647758                       # average ReadReq mshr miss latency ((Tick/Count))
system.cpu.icache.ReadReq.avgMshrMissLatency::total 23001.647758                       # average ReadReq mshr miss latency ((Tick/Count))
system.cpu.icache.power_state.pwrStateResidencyTicks::UNDEFINED  64385758000                       # Cumulative time (in ticks) in various power states (Tick)
system.cpu.icache.tags.tagsInUse           473.755328                       # Average ticks per tags in use ((Tick/Count))
system.cpu.icache.tags.totalRefs             16862039                       # Total number of references to valid blocks. (Count)
system.cpu.icache.tags.sampledRefs             113790                       # Sample count of references to valid blocks. (Count)
system.cpu.icache.tags.avgRefs             148.185596                       # Average number of references to valid blocks. ((Count/Count))
system.cpu.icache.tags.warmupTick               77000                       # The tick when the warmup percentage was hit. (Tick)
system.cpu.icache.tags.occupancies::cpu.inst   473.755328                       # Average occupied blocks per tick, per requestor ((Count/Tick))
system.cpu.icache.tags.avgOccs::cpu.inst     0.925303                       # Average percentage of cache occupancy ((Ratio/Tick))
system.cpu.icache.tags.avgOccs::total        0.925303                       # Average percentage of cache occupancy ((Ratio/Tick))
system.cpu.icache.tags.occupanciesTaskId::1024          510                       # Occupied blocks per task id (Count)
system.cpu.icache.tags.ageTaskId_1024::0          117                       # Occupied blocks per task id, per block age (Count)
system.cpu.icache.tags.ageTaskId_1024::1           34                       # Occupied blocks per task id, per block age (Count)
system.cpu.icache.tags.ageTaskId_1024::2           22                       # Occupied blocks per task id, per block age (Count)
system.cpu.icache.tags.ageTaskId_1024::3          114                       # Occupied blocks per task id, per block age (Count)
system.cpu.icache.tags.ageTaskId_1024::4          223                       # Occupied blocks per task id, per block age (Count)
system.cpu.icache.tags.ratioOccsTaskId::1024     0.996094                       # Ratio of occupied blocks and all blocks, per task id (Ratio)
system.cpu.icache.tags.tagAccesses           33837870                       # Number of tag accesses (Count)
system.cpu.icache.tags.dataAccesses          33837870                       # Number of data accesses (Count)
system.cpu.icache.tags.power_state.pwrStateResidencyTicks::UNDEFINED  64385758000                       # Cumulative time (in ticks) in various power states (Tick)
system.cpu.interrupts.clk_domain.clock           8000                       # Clock period in ticks (Tick)
system.cpu.itb_walker_cache.blockedCycles::no_mshrs            0                       # number of cycles access was blocked (Cycle)
system.cpu.itb_walker_cache.blockedCycles::no_targets            0                       # number of cycles access was blocked (Cycle)
system.cpu.itb_walker_cache.blockedCauses::no_mshrs            0                       # number of times access was blocked (Count)
system.cpu.itb_walker_cache.blockedCauses::no_targets            0                       # number of times access was blocked (Count)
system.cpu.itb_walker_cache.avgBlocked::no_mshrs          nan                       # average number of cycles each access was blocked ((Cycle/Count))
system.cpu.itb_walker_cache.avgBlocked::no_targets          nan                       # average number of cycles each access was blocked ((Cycle/Count))
system.cpu.itb_walker_cache.replacements            0                       # number of replacements (Count)
system.cpu.itb_walker_cache.power_state.pwrStateResidencyTicks::UNDEFINED  64385758000                       # Cumulative time (in ticks) in various power states (Tick)
system.cpu.itb_walker_cache.tags.tagsInUse            0                       # Average ticks per tags in use ((Tick/Count))
system.cpu.itb_walker_cache.tags.totalRefs            0                       # Total number of references to valid blocks. (Count)
system.cpu.itb_walker_cache.tags.sampledRefs            0                       # Sample count of references to valid blocks. (Count)
system.cpu.itb_walker_cache.tags.avgRefs          nan                       # Average number of references to valid blocks. ((Count/Count))
system.cpu.itb_walker_cache.tags.warmupTick            0                       # The tick when the warmup percentage was hit. (Tick)
system.cpu.itb_walker_cache.tags.tagAccesses            0                       # Number of tag accesses (Count)
system.cpu.itb_walker_cache.tags.dataAccesses            0                       # Number of data accesses (Count)
system.cpu.itb_walker_cache.tags.power_state.pwrStateResidencyTicks::UNDEFINED  64385758000                       # Cumulative time (in ticks) in various power states (Tick)
system.cpu.mmu.dtb.rdAccesses                13966406                       # TLB accesses on read requests (Count)
system.cpu.mmu.dtb.wrAccesses                 6382147                       # TLB accesses on write requests (Count)
system.cpu.mmu.dtb.rdMisses                    209925                       # TLB misses on read requests (Count)
system.cpu.mmu.dtb.wrMisses                       115                       # TLB misses on write requests (Count)
system.cpu.mmu.dtb.walker.power_state.pwrStateResidencyTicks::UNDEFINED  64385758000                       # Cumulative time (in ticks) in various power states (Tick)
system.cpu.mmu.itb.rdAccesses                       0                       # TLB accesses on read requests (Count)
system.cpu.mmu.itb.wrAccesses                16862040                       # TLB accesses on write requests (Count)
system.cpu.mmu.itb.rdMisses                         0                       # TLB misses on read requests (Count)
system.cpu.mmu.itb.wrMisses                        90                       # TLB misses on write requests (Count)
system.cpu.mmu.itb.walker.power_state.pwrStateResidencyTicks::UNDEFINED  64385758000                       # Cumulative time (in ticks) in various power states (Tick)
system.cpu.power_state.pwrStateResidencyTicks::ON  64385758000                       # Cumulative time (in ticks) in various power states (Tick)
system.cpu.thread_0.numInsts                 41293604                       # Number of Instructions committed (Count)
system.cpu.thread_0.numOps                   78319975                       # Number of Ops committed (Count)
system.cpu.thread_0.numMemRefs                      0                       # Number of Memory References (Count)
system.cpu.workload.numSyscalls                  4123                       # Number of system calls (Count)
system.cpu_clk_domain.clock                       500                       # Clock period in ticks (Tick)
system.cpu_voltage_domain.voltage                   1                       # Voltage in Volts (Volt)
system.mem_ctrls.avgPriority_writebacks::samples      8948.00                       # Average QoS priority value for accepted requests (Count)
system.mem_ctrls.avgPriority_cpu.inst::samples      1493.00                       # Average QoS priority value for accepted requests (Count)
system.mem_ctrls.avgPriority_cpu.data::samples     16861.00                       # Average QoS priority value for accepted requests (Count)
system.mem_ctrls.priorityMinLatency      0.000000018750                       # per QoS priority minimum request to response latency (Second)
system.mem_ctrls.priorityMaxLatency      0.053117178750                       # per QoS priority maximum request to response latency (Second)
system.mem_ctrls.numReadWriteTurnArounds          510                       # Number of turnarounds from READ to WRITE (Count)
system.mem_ctrls.numWriteReadTurnArounds          510                       # Number of turnarounds from WRITE to READ (Count)
system.mem_ctrls.numStayReadState              177154                       # Number of times bus staying in READ state (Count)
system.mem_ctrls.numStayWriteState               8418                       # Number of times bus staying in WRITE state (Count)
system.mem_ctrls.readReqs                      135810                       # Number of read requests accepted (Count)
system.mem_ctrls.writeReqs                     124245                       # Number of write requests accepted (Count)
system.mem_ctrls.readBursts                    135810                       # Number of controller read bursts, including those serviced by the write queue (Count)
system.mem_ctrls.writeBursts                   124245                       # Number of controller write bursts, including those merged in the write queue (Count)
system.mem_ctrls.servicedByWrQ                 117456                       # Number of controller read bursts serviced by the write queue (Count)
system.mem_ctrls.mergedWrBursts                115297                       # Number of controller write bursts merged with an existing one (Count)
system.mem_ctrls.neitherReadNorWriteReqs            0                       # Number of requests that are neither read nor write (Count)
system.mem_ctrls.avgRdQLen                       1.00                       # Average read queue length when enqueuing ((Count/Tick))
system.mem_ctrls.avgWrQLen                      26.87                       # Average write queue length when enqueuing ((Count/Tick))
system.mem_ctrls.numRdRetry                         0                       # Number of times read queue was full causing retry (Count)
system.mem_ctrls.numWrRetry                         0                       # Number of times write queue was full causing retry (Count)
system.mem_ctrls.readPktSize::0                     0                       # Read request sizes (log2) (Count)
system.mem_ctrls.readPktSize::1                     0                       # Read request sizes (log2) (Count)
system.mem_ctrls.readPktSize::2                     0                       # Read request sizes (log2) (Count)
system.mem_ctrls.readPktSize::3                     0                       # Read request sizes (log2) (Count)
system.mem_ctrls.readPktSize::4                     0                       # Read request sizes (log2) (Count)
system.mem_ctrls.readPktSize::5                     0                       # Read request sizes (log2) (Count)
system.mem_ctrls.readPktSize::6                135810                       # Read request sizes (log2) (Count)
system.mem_ctrls.writePktSize::0                    0                       # Write request sizes (log2) (Count)
system.mem_ctrls.writePktSize::1                    0                       # Write request sizes (log2) (Count)
system.mem_ctrls.writePktSize::2                    0                       # Write request sizes (log2) (Count)
system.mem_ctrls.writePktSize::3                    0                       # Write request sizes (log2) (Count)
system.mem_ctrls.writePktSize::4                    0                       # Write request sizes (log2) (Count)
system.mem_ctrls.writePktSize::5                    0                       # Write request sizes (log2) (Count)
system.mem_ctrls.writePktSize::6               124245                       # Write request sizes (log2) (Count)
system.mem_ctrls.rdQLenPdf::0                   18113                       # What read queue length does an incoming req see (Count)
system.mem_ctrls.rdQLenPdf::1                     224                       # What read queue length does an incoming req see (Count)
system.mem_ctrls.rdQLenPdf::2                      17                       # What read queue length does an incoming req see (Count)
system.mem_ctrls.rdQLenPdf::3                       0                       # What read queue length does an incoming req see (Count)
system.mem_ctrls.rdQLenPdf::4                       0                       # What read queue length does an incoming req see (Count)
system.mem_ctrls.rdQLenPdf::5                       0                       # What read queue length does an incoming req see (Count)
system.mem_ctrls.rdQLenPdf::6                       0                       # What read queue length does an incoming req see (Count)
system.mem_ctrls.rdQLenPdf::7                       0                       # What read queue length does an incoming req see (Count)
system.mem_ctrls.rdQLenPdf::8                       0                       # What read queue length does an incoming req see (Count)
system.mem_ctrls.rdQLenPdf::9                       0                       # What read queue length does an incoming req see (Count)
system.mem_ctrls.rdQLenPdf::10                      0                       # What read queue length does an incoming req see (Count)
system.mem_ctrls.rdQLenPdf::11                      0                       # What read queue length does an incoming req see (Count)
system.mem_ctrls.rdQLenPdf::12                      0                       # What read queue length does an incoming req see (Count)
system.mem_ctrls.rdQLenPdf::13                      0                       # What read queue length does an incoming req see (Count)
system.mem_ctrls.rdQLenPdf::14                      0                       # What read queue length does an incoming req see (Count)
system.mem_ctrls.rdQLenPdf::15                      0                       # What read queue length does an incoming req see (Count)
system.mem_ctrls.rdQLenPdf::16                      0                       # What read queue length does an incoming req see (Count)
system.mem_ctrls.rdQLenPdf::17                      0                       # What read queue length does an incoming req see (Count)
system.mem_ctrls.rdQLenPdf::18                      0                       # What read queue length does an incoming req see (Count)
system.mem_ctrls.rdQLenPdf::19                      0                       # What read queue length does an incoming req see (Count)
system.mem_ctrls.rdQLenPdf::20                      0                       # What read queue length does an incoming req see (Count)
system.mem_ctrls.rdQLenPdf::21                      0                       # What read queue length does an incoming req see (Count)
system.mem_ctrls.rdQLenPdf::22                      0                       # What read queue length does an incoming req see (Count)
system.mem_ctrls.rdQLenPdf::23                      0                       # What read queue length does an incoming req see (Count)
system.mem_ctrls.rdQLenPdf::24                      0                       # What read queue length does an incoming req see (Count)
system.mem_ctrls.rdQLenPdf::25                      0                       # What read queue length does an incoming req see (Count)
system.mem_ctrls.rdQLenPdf::26                      0                       # What read queue length does an incoming req see (Count)
system.mem_ctrls.rdQLenPdf::27                      0                       # What read queue length does an incoming req see (Count)
system.mem_ctrls.rdQLenPdf::28                      0                       # What read queue length does an incoming req see (Count)
system.mem_ctrls.rdQLenPdf::29                      0                       # What read queue length does an incoming req see (Count)
system.mem_ctrls.rdQLenPdf::30                      0                       # What read queue length does an incoming req see (Count)
system.mem_ctrls.rdQLenPdf::31                      0                       # What read queue length does an incoming req see (Count)
system.mem_ctrls.wrQLenPdf::0                       1                       # What write queue length does an incoming req see (Count)
system.mem_ctrls.wrQLenPdf::1                       1                       # What write queue length does an incoming req see (Count)
system.mem_ctrls.wrQLenPdf::2                       1                       # What write queue length does an incoming req see (Count)
system.mem_ctrls.wrQLenPdf::3                       1                       # What write queue length does an incoming req see (Count)
system.mem_ctrls.wrQLenPdf::4                       1                       # What write queue length does an incoming req see (Count)
system.mem_ctrls.wrQLenPdf::5                       1                       # What write queue length does an incoming req see (Count)
system.mem_ctrls.wrQLenPdf::6                       1                       # What write queue length does an incoming req see (Count)
system.mem_ctrls.wrQLenPdf::7                       1                       # What write queue length does an incoming req see (Count)
system.mem_ctrls.wrQLenPdf::8                       1                       # What write queue length does an incoming req see (Count)
system.mem_ctrls.wrQLenPdf::9                       1                       # What write queue length does an incoming req see (Count)
system.mem_ctrls.wrQLenPdf::10                      1                       # What write queue length does an incoming req see (Count)
system.mem_ctrls.wrQLenPdf::11                      1                       # What write queue length does an incoming req see (Count)
system.mem_ctrls.wrQLenPdf::12                      1                       # What write queue length does an incoming req see (Count)
system.mem_ctrls.wrQLenPdf::13                      1                       # What write queue length does an incoming req see (Count)
system.mem_ctrls.wrQLenPdf::14                      1                       # What write queue length does an incoming req see (Count)
system.mem_ctrls.wrQLenPdf::15                    354                       # What write queue length does an incoming req see (Count)
system.mem_ctrls.wrQLenPdf::16                    358                       # What write queue length does an incoming req see (Count)
system.mem_ctrls.wrQLenPdf::17                    511                       # What write queue length does an incoming req see (Count)
system.mem_ctrls.wrQLenPdf::18                    530                       # What write queue length does an incoming req see (Count)
system.mem_ctrls.wrQLenPdf::19                    515                       # What write queue length does an incoming req see (Count)
system.mem_ctrls.wrQLenPdf::20                    522                       # What write queue length does an incoming req see (Count)
system.mem_ctrls.wrQLenPdf::21                    520                       # What write queue length does an incoming req see (Count)
system.mem_ctrls.wrQLenPdf::22                    514                       # What write queue length does an incoming req see (Count)
system.mem_ctrls.wrQLenPdf::23                    515                       # What write queue length does an incoming req see (Count)
system.mem_ctrls.wrQLenPdf::24                    510                       # What write queue length does an incoming req see (Count)
system.mem_ctrls.wrQLenPdf::25                    510                       # What write queue length does an incoming req see (Count)
system.mem_ctrls.wrQLenPdf::26                    510                       # What write queue length does an incoming req see (Count)
system.mem_ctrls.wrQLenPdf::27                    512                       # What write queue length does an incoming req see (Count)
system.mem_ctrls.wrQLenPdf::28                    511                       # What write queue length does an incoming req see (Count)
system.mem_ctrls.wrQLenPdf::29                    511                       # What write queue length does an incoming req see (Count)
system.mem_ctrls.wrQLenPdf::30                    510                       # What write queue length does an incoming req see (Count)
system.mem_ctrls.wrQLenPdf::31                    510                       # What write queue length does an incoming req see (Count)
system.mem_ctrls.wrQLenPdf::32                    510                       # What write queue length does an incoming req see (Count)
system.mem_ctrls.wrQLenPdf::33                      0                       # What write queue length does an incoming req see (Count)
system.mem_ctrls.wrQLenPdf::34                      0                       # What write queue length does an incoming req see (Count)
system.mem_ctrls.wrQLenPdf::35                      0                       # What write queue length does an incoming req see (Count)
system.mem_ctrls.wrQLenPdf::36                      0                       # What write queue length does an incoming req see (Count)
system.mem_ctrls.wrQLenPdf::37                      0                       # What write queue length does an incoming req see (Count)
system.mem_ctrls.wrQLenPdf::38                      0                       # What write queue length does an incoming req see (Count)
system.mem_ctrls.wrQLenPdf::39                      0                       # What write queue length does an incoming req see (Count)
system.mem_ctrls.wrQLenPdf::40                      0                       # What write queue length does an incoming req see (Count)
system.mem_ctrls.wrQLenPdf::41                      0                       # What write queue length does an incoming req see (Count)
system.mem_ctrls.wrQLenPdf::42                      0                       # What write queue length does an incoming req see (Count)
system.mem_ctrls.wrQLenPdf::43                      0                       # What write queue length does an incoming req see (Count)
system.mem_ctrls.wrQLenPdf::44                      0                       # What write queue length does an incoming req see (Count)
system.mem_ctrls.wrQLenPdf::45                      0                       # What write queue length does an incoming req see (Count)
system.mem_ctrls.wrQLenPdf::46                      0                       # What write queue length does an incoming req see (Count)
system.mem_ctrls.wrQLenPdf::47                      0                       # What write queue length does an incoming req see (Count)
system.mem_ctrls.wrQLenPdf::48                      0                       # What write queue length does an incoming req see (Count)
system.mem_ctrls.wrQLenPdf::49                      0                       # What write queue length does an incoming req see (Count)
system.mem_ctrls.wrQLenPdf::50                      0                       # What write queue length does an incoming req see (Count)
system.mem_ctrls.wrQLenPdf::51                      0                       # What write queue length does an incoming req see (Count)
system.mem_ctrls.wrQLenPdf::52                      0                       # What write queue length does an incoming req see (Count)
system.mem_ctrls.wrQLenPdf::53                      0                       # What write queue length does an incoming req see (Count)
system.mem_ctrls.wrQLenPdf::54                      0                       # What write queue length does an incoming req see (Count)
system.mem_ctrls.wrQLenPdf::55                      0                       # What write queue length does an incoming req see (Count)
system.mem_ctrls.wrQLenPdf::56                      0                       # What write queue length does an incoming req see (Count)
system.mem_ctrls.wrQLenPdf::57                      0                       # What write queue length does an incoming req see (Count)
system.mem_ctrls.wrQLenPdf::58                      0                       # What write queue length does an incoming req see (Count)
system.mem_ctrls.wrQLenPdf::59                      0                       # What write queue length does an incoming req see (Count)
system.mem_ctrls.wrQLenPdf::60                      0                       # What write queue length does an incoming req see (Count)
system.mem_ctrls.wrQLenPdf::61                      0                       # What write queue length does an incoming req see (Count)
system.mem_ctrls.wrQLenPdf::62                      0                       # What write queue length does an incoming req see (Count)
system.mem_ctrls.wrQLenPdf::63                      0                       # What write queue length does an incoming req see (Count)
system.mem_ctrls.rdPerTurnAround::samples          510                       # Reads before turning the bus around for writes (Count)
system.mem_ctrls.rdPerTurnAround::mean      35.972549                       # Reads before turning the bus around for writes (Count)
system.mem_ctrls.rdPerTurnAround::gmean     24.411525                       # Reads before turning the bus around for writes (Count)
system.mem_ctrls.rdPerTurnAround::stdev     57.823042                       # Reads before turning the bus around for writes (Count)
system.mem_ctrls.rdPerTurnAround::0-31            398     78.04%     78.04% # Reads before turning the bus around for writes (Count)
system.mem_ctrls.rdPerTurnAround::32-63            57     11.18%     89.22% # Reads before turning the bus around for writes (Count)
system.mem_ctrls.rdPerTurnAround::64-95            17      3.33%     92.55% # Reads before turning the bus around for writes (Count)
system.mem_ctrls.rdPerTurnAround::96-127           10      1.96%     94.51% # Reads before turning the bus around for writes (Count)
system.mem_ctrls.rdPerTurnAround::128-159           17      3.33%     97.84% # Reads before turning the bus around for writes (Count)
system.mem_ctrls.rdPerTurnAround::160-191            3      0.59%     98.43% # Reads before turning the bus around for writes (Count)
system.mem_ctrls.rdPerTurnAround::192-223            2      0.39%     98.82% # Reads before turning the bus around for writes (Count)
system.mem_ctrls.rdPerTurnAround::224-255            1      0.20%     99.02% # Reads before turning the bus around for writes (Count)
system.mem_ctrls.rdPerTurnAround::416-447            1      0.20%     99.22% # Reads before turning the bus around for writes (Count)
system.mem_ctrls.rdPerTurnAround::480-511            1      0.20%     99.41% # Reads before turning the bus around for writes (Count)
system.mem_ctrls.rdPerTurnAround::512-543            2      0.39%     99.80% # Reads before turning the bus around for writes (Count)
system.mem_ctrls.rdPerTurnAround::544-575            1      0.20%    100.00% # Reads before turning the bus around for writes (Count)
system.mem_ctrls.rdPerTurnAround::total           510                       # Reads before turning the bus around for writes (Count)
system.mem_ctrls.wrPerTurnAround::samples          510                       # Writes before turning the bus around for reads (Count)
system.mem_ctrls.wrPerTurnAround::mean      17.500000                       # Writes before turning the bus around for reads (Count)
system.mem_ctrls.wrPerTurnAround::gmean     17.469181                       # Writes before turning the bus around for reads (Count)
system.mem_ctrls.wrPerTurnAround::stdev      1.027615                       # Writes before turning the bus around for reads (Count)
system.mem_ctrls.wrPerTurnAround::16              152     29.80%     29.80% # Writes before turning the bus around for reads (Count)
system.mem_ctrls.wrPerTurnAround::17                4      0.78%     30.59% # Writes before turning the bus around for reads (Count)
system.mem_ctrls.wrPerTurnAround::18              301     59.02%     89.61% # Writes before turning the bus around for reads (Count)
system.mem_ctrls.wrPerTurnAround::19               53     10.39%    100.00% # Writes before turning the bus around for reads (Count)
system.mem_ctrls.wrPerTurnAround::total           510                       # Writes before turning the bus around for reads (Count)
system.mem_ctrls.bytesReadWrQ                 7517184                       # Total number of bytes read from write queue (Byte)
system.mem_ctrls.bytesReadSys                 8691840                       # Total read bytes from the system interface side (Byte)
system.mem_ctrls.bytesWrittenSys              7951680                       # Total written bytes from the system interface side (Byte)
system.mem_ctrls.avgRdBWSys              134996313.93638325                       # Average system read bandwidth in Byte/s ((Byte/Second))
system.mem_ctrls.avgWrBWSys              123500603.96897089                       # Average system write bandwidth in Byte/s ((Byte/Second))
system.mem_ctrls.totGap                   64385754500                       # Total gap between requests (Tick)
system.mem_ctrls.avgGap                     247585.14                       # Average gap between requests ((Tick/Count))
system.mem_ctrls.requestorReadBytes::cpu.inst        95552                       # Per-requestor bytes read from memory (Byte)
system.mem_ctrls.requestorReadBytes::cpu.data      1079104                       # Per-requestor bytes read from memory (Byte)
system.mem_ctrls.requestorWriteBytes::writebacks       571200                       # Per-requestor bytes write to memory (Byte)
system.mem_ctrls.requestorReadRate::cpu.inst 1484054.905434211018                       # Per-requestor bytes read from memory rate ((Byte/Second))
system.mem_ctrls.requestorReadRate::cpu.data 16759979.745831368491                       # Per-requestor bytes read from memory rate ((Byte/Second))
system.mem_ctrls.requestorWriteRate::writebacks 8871527.147354543209                       # Per-requestor bytes write to memory rate ((Byte/Second))
system.mem_ctrls.requestorReadAccesses::cpu.inst       113791                       # Per-requestor read serviced memory accesses (Count)
system.mem_ctrls.requestorReadAccesses::cpu.data        22019                       # Per-requestor read serviced memory accesses (Count)
system.mem_ctrls.requestorWriteAccesses::writebacks       124245                       # Per-requestor write serviced memory accesses (Count)
system.mem_ctrls.requestorReadTotalLat::cpu.inst     44847000                       # Per-requestor read total memory access latency (Tick)
system.mem_ctrls.requestorReadTotalLat::cpu.data    535296000                       # Per-requestor read total memory access latency (Tick)
system.mem_ctrls.requestorWriteTotalLat::writebacks 1685637336750                       # Per-requestor write total memory access latency (Tick)
system.mem_ctrls.requestorReadAvgLat::cpu.inst       394.12                       # Per-requestor read average memory access latency ((Tick/Count))
system.mem_ctrls.requestorReadAvgLat::cpu.data     24310.64                       # Per-requestor read average memory access latency ((Tick/Count))
system.mem_ctrls.requestorWriteAvgLat::writebacks  13567043.64                       # Per-requestor write average memory access latency ((Tick/Count))
system.mem_ctrls.dram.bytesRead::cpu.inst      7282560                       # Number of bytes read from this memory (Byte)
system.mem_ctrls.dram.bytesRead::cpu.data      1409216                       # Number of bytes read from this memory (Byte)
system.mem_ctrls.dram.bytesRead::total        8691776                       # Number of bytes read from this memory (Byte)
system.mem_ctrls.dram.bytesInstRead::cpu.inst      7282560                       # Number of instructions bytes read from this memory (Byte)
system.mem_ctrls.dram.bytesInstRead::total      7282560                       # Number of instructions bytes read from this memory (Byte)
system.mem_ctrls.dram.bytesWritten::writebacks       701760                       # Number of bytes written to this memory (Byte)
system.mem_ctrls.dram.bytesWritten::total       701760                       # Number of bytes written to this memory (Byte)
system.mem_ctrls.dram.numReads::cpu.inst       113790                       # Number of read requests responded to by this memory (Count)
system.mem_ctrls.dram.numReads::cpu.data        22019                       # Number of read requests responded to by this memory (Count)
system.mem_ctrls.dram.numReads::total          135809                       # Number of read requests responded to by this memory (Count)
system.mem_ctrls.dram.numWrites::writebacks        10965                       # Number of write requests responded to by this memory (Count)
system.mem_ctrls.dram.numWrites::total          10965                       # Number of write requests responded to by this memory (Count)
system.mem_ctrls.dram.bwRead::cpu.inst      113108244                       # Total read bandwidth from this memory ((Byte/Second))
system.mem_ctrls.dram.bwRead::cpu.data       21887076                       # Total read bandwidth from this memory ((Byte/Second))
system.mem_ctrls.dram.bwRead::total         134995320                       # Total read bandwidth from this memory ((Byte/Second))
system.mem_ctrls.dram.bwInstRead::cpu.inst    113108244                       # Instruction read bandwidth from this memory ((Byte/Second))
system.mem_ctrls.dram.bwInstRead::total     113108244                       # Instruction read bandwidth from this memory ((Byte/Second))
system.mem_ctrls.dram.bwWrite::writebacks     10899305                       # Write bandwidth from this memory ((Byte/Second))
system.mem_ctrls.dram.bwWrite::total         10899305                       # Write bandwidth from this memory ((Byte/Second))
system.mem_ctrls.dram.bwTotal::writebacks     10899305                       # Total bandwidth to/from this memory ((Byte/Second))
system.mem_ctrls.dram.bwTotal::cpu.inst     113108244                       # Total bandwidth to/from this memory ((Byte/Second))
system.mem_ctrls.dram.bwTotal::cpu.data      21887076                       # Total bandwidth to/from this memory ((Byte/Second))
system.mem_ctrls.dram.bwTotal::total        145894625                       # Total bandwidth to/from this memory ((Byte/Second))
system.mem_ctrls.dram.readBursts                18354                       # Number of DRAM read bursts (Count)
system.mem_ctrls.dram.writeBursts                8925                       # Number of DRAM write bursts (Count)
system.mem_ctrls.dram.perBankRdBursts::0         1620                       # Per bank write bursts (Count)
system.mem_ctrls.dram.perBankRdBursts::1         1930                       # Per bank write bursts (Count)
system.mem_ctrls.dram.perBankRdBursts::2         1663                       # Per bank write bursts (Count)
system.mem_ctrls.dram.perBankRdBursts::3          898                       # Per bank write bursts (Count)
system.mem_ctrls.dram.perBankRdBursts::4          719                       # Per bank write bursts (Count)
system.mem_ctrls.dram.perBankRdBursts::5          785                       # Per bank write bursts (Count)
system.mem_ctrls.dram.perBankRdBursts::6          891                       # Per bank write bursts (Count)
system.mem_ctrls.dram.perBankRdBursts::7         1044                       # Per bank write bursts (Count)
system.mem_ctrls.dram.perBankRdBursts::8         1121                       # Per bank write bursts (Count)
system.mem_ctrls.dram.perBankRdBursts::9          894                       # Per bank write bursts (Count)
system.mem_ctrls.dram.perBankRdBursts::10          664                       # Per bank write bursts (Count)
system.mem_ctrls.dram.perBankRdBursts::11          538                       # Per bank write bursts (Count)
system.mem_ctrls.dram.perBankRdBursts::12          784                       # Per bank write bursts (Count)
system.mem_ctrls.dram.perBankRdBursts::13         1667                       # Per bank write bursts (Count)
system.mem_ctrls.dram.perBankRdBursts::14         1554                       # Per bank write bursts (Count)
system.mem_ctrls.dram.perBankRdBursts::15         1582                       # Per bank write bursts (Count)
system.mem_ctrls.dram.perBankWrBursts::0          553                       # Per bank write bursts (Count)
system.mem_ctrls.dram.perBankWrBursts::1          583                       # Per bank write bursts (Count)
system.mem_ctrls.dram.perBankWrBursts::2          502                       # Per bank write bursts (Count)
system.mem_ctrls.dram.perBankWrBursts::3          599                       # Per bank write bursts (Count)
system.mem_ctrls.dram.perBankWrBursts::4          546                       # Per bank write bursts (Count)
system.mem_ctrls.dram.perBankWrBursts::5          563                       # Per bank write bursts (Count)
system.mem_ctrls.dram.perBankWrBursts::6          590                       # Per bank write bursts (Count)
system.mem_ctrls.dram.perBankWrBursts::7          696                       # Per bank write bursts (Count)
system.mem_ctrls.dram.perBankWrBursts::8          554                       # Per bank write bursts (Count)
system.mem_ctrls.dram.perBankWrBursts::9          641                       # Per bank write bursts (Count)
system.mem_ctrls.dram.perBankWrBursts::10          438                       # Per bank write bursts (Count)
system.mem_ctrls.dram.perBankWrBursts::11          470                       # Per bank write bursts (Count)
system.mem_ctrls.dram.perBankWrBursts::12          498                       # Per bank write bursts (Count)
system.mem_ctrls.dram.perBankWrBursts::13          590                       # Per bank write bursts (Count)
system.mem_ctrls.dram.perBankWrBursts::14          537                       # Per bank write bursts (Count)
system.mem_ctrls.dram.perBankWrBursts::15          565                       # Per bank write bursts (Count)
system.mem_ctrls.dram.totQLat               236005500                       # Total ticks spent queuing (Tick)
system.mem_ctrls.dram.totBusLat              91770000                       # Total ticks spent in databus transfers (Tick)
system.mem_ctrls.dram.totMemAccLat          580143000                       # Total ticks spent from burst creation until serviced by the DRAM (Tick)
system.mem_ctrls.dram.avgQLat                12858.53                       # Average queueing delay per DRAM burst ((Tick/Count))
system.mem_ctrls.dram.avgBusLat               5000.00                       # Average bus latency per DRAM burst ((Tick/Count))
system.mem_ctrls.dram.avgMemAccLat           31608.53                       # Average memory access latency per DRAM burst ((Tick/Count))
system.mem_ctrls.dram.readRowHits                9689                       # Number of row buffer hits during reads (Count)
system.mem_ctrls.dram.writeRowHits               7634                       # Number of row buffer hits during writes (Count)
system.mem_ctrls.dram.readRowHitRate            52.79                       # Row buffer hit rate for reads (Ratio)
system.mem_ctrls.dram.writeRowHitRate           85.54                       # Row buffer hit rate for writes (Ratio)
system.mem_ctrls.dram.bytesPerActivate::samples         9948                       # Bytes accessed per row activation (Byte)
system.mem_ctrls.dram.bytesPerActivate::mean   175.375955                       # Bytes accessed per row activation (Byte)
system.mem_ctrls.dram.bytesPerActivate::gmean   111.268932                       # Bytes accessed per row activation (Byte)
system.mem_ctrls.dram.bytesPerActivate::stdev   225.299645                       # Bytes accessed per row activation (Byte)
system.mem_ctrls.dram.bytesPerActivate::0-127         6338     63.71%     63.71% # Bytes accessed per row activation (Byte)
system.mem_ctrls.dram.bytesPerActivate::128-255         1155     11.61%     75.32% # Bytes accessed per row activation (Byte)
system.mem_ctrls.dram.bytesPerActivate::256-383         1433     14.40%     89.73% # Bytes accessed per row activation (Byte)
system.mem_ctrls.dram.bytesPerActivate::384-511          229      2.30%     92.03% # Bytes accessed per row activation (Byte)
system.mem_ctrls.dram.bytesPerActivate::512-639          116      1.17%     93.19% # Bytes accessed per row activation (Byte)
system.mem_ctrls.dram.bytesPerActivate::640-767          101      1.02%     94.21% # Bytes accessed per row activation (Byte)
system.mem_ctrls.dram.bytesPerActivate::768-895          140      1.41%     95.62% # Bytes accessed per row activation (Byte)
system.mem_ctrls.dram.bytesPerActivate::896-1023           61      0.61%     96.23% # Bytes accessed per row activation (Byte)
system.mem_ctrls.dram.bytesPerActivate::1024-1151          375      3.77%    100.00% # Bytes accessed per row activation (Byte)
system.mem_ctrls.dram.bytesPerActivate::total         9948                       # Bytes accessed per row activation (Byte)
system.mem_ctrls.dram.bytesRead               1174656                       # Total bytes read (Byte)
system.mem_ctrls.dram.bytesWritten             571200                       # Total bytes written (Byte)
system.mem_ctrls.dram.avgRdBW               18.244035                       # Average DRAM read bandwidth in MiBytes/s ((Byte/Second))
system.mem_ctrls.dram.avgWrBW                8.871527                       # Average DRAM write bandwidth in MiBytes/s ((Byte/Second))
system.mem_ctrls.dram.peakBW                 12800.00                       # Theoretical peak bandwidth in MiByte/s ((Byte/Second))
system.mem_ctrls.dram.busUtil                    0.21                       # Data bus utilization in percentage (Ratio)
system.mem_ctrls.dram.busUtilRead                0.14                       # Data bus utilization in percentage for reads (Ratio)
system.mem_ctrls.dram.busUtilWrite               0.07                       # Data bus utilization in percentage for writes (Ratio)
system.mem_ctrls.dram.pageHitRate               63.50                       # Row buffer hit rate, read and write combined (Ratio)
system.mem_ctrls.dram.power_state.pwrStateResidencyTicks::UNDEFINED  64385758000                       # Cumulative time (in ticks) in various power states (Tick)
system.mem_ctrls.dram.rank0.actEnergy        36856680                       # Energy for activate commands per rank (pJ) (Joule)
system.mem_ctrls.dram.rank0.preEnergy        19570815                       # Energy for precharge commands per rank (pJ) (Joule)
system.mem_ctrls.dram.rank0.readEnergy       68187000                       # Energy for read commands per rank (pJ) (Joule)
system.mem_ctrls.dram.rank0.writeEnergy      24179040                       # Energy for write commands per rank (pJ) (Joule)
system.mem_ctrls.dram.rank0.refreshEnergy 5082458160.000001                       # Energy for refresh commands per rank (pJ) (Joule)
system.mem_ctrls.dram.rank0.actBackEnergy   8704918590                       # Energy for active background per rank (pJ) (Joule)
system.mem_ctrls.dram.rank0.preBackEnergy  17393673600                       # Energy for precharge background per rank (pJ) (Joule)
system.mem_ctrls.dram.rank0.actPowerDownEnergy            0                       # Energy for active power-down per rank (pJ) (Joule)
system.mem_ctrls.dram.rank0.prePowerDownEnergy            0                       # Energy for precharge power-down per rank (pJ) (Joule)
system.mem_ctrls.dram.rank0.selfRefreshEnergy            0                       # Energy for self refresh per rank (pJ) (Joule)
system.mem_ctrls.dram.rank0.totalEnergy   31329843885                       # Total energy per rank (pJ) (Joule)
system.mem_ctrls.dram.rank0.averagePower   486.595869                       # Core power per rank (mW) (Watt)
system.mem_ctrls.dram.rank0.totalIdleTime            0                       # Total Idle time Per DRAM Rank (Tick)
system.mem_ctrls.dram.rank0.pwrStateTime::IDLE  45130359250                       # Time in different power states (Tick)
system.mem_ctrls.dram.rank0.pwrStateTime::REF   2149940000                       # Time in different power states (Tick)
system.mem_ctrls.dram.rank0.pwrStateTime::SREF            0                       # Time in different power states (Tick)
system.mem_ctrls.dram.rank0.pwrStateTime::PRE_PDN            0                       # Time in different power states (Tick)
system.mem_ctrls.dram.rank0.pwrStateTime::ACT  17105458750                       # Time in different power states (Tick)
system.mem_ctrls.dram.rank0.pwrStateTime::ACT_PDN            0                       # Time in different power states (Tick)
system.mem_ctrls.dram.rank1.actEnergy        34229160                       # Energy for activate commands per rank (pJ) (Joule)
system.mem_ctrls.dram.rank1.preEnergy        18181845                       # Energy for precharge commands per rank (pJ) (Joule)
system.mem_ctrls.dram.rank1.readEnergy       62860560                       # Energy for read commands per rank (pJ) (Joule)
system.mem_ctrls.dram.rank1.writeEnergy      22409460                       # Energy for write commands per rank (pJ) (Joule)
system.mem_ctrls.dram.rank1.refreshEnergy 5082458160.000001                       # Energy for refresh commands per rank (pJ) (Joule)
system.mem_ctrls.dram.rank1.actBackEnergy   8229575640                       # Energy for active background per rank (pJ) (Joule)
system.mem_ctrls.dram.rank1.preBackEnergy  17793962400                       # Energy for precharge background per rank (pJ) (Joule)
system.mem_ctrls.dram.rank1.actPowerDownEnergy            0                       # Energy for active power-down per rank (pJ) (Joule)
system.mem_ctrls.dram.rank1.prePowerDownEnergy            0                       # Energy for precharge power-down per rank (pJ) (Joule)
system.mem_ctrls.dram.rank1.selfRefreshEnergy            0                       # Energy for self refresh per rank (pJ) (Joule)
system.mem_ctrls.dram.rank1.totalEnergy   31243677225                       # Total energy per rank (pJ) (Joule)
system.mem_ctrls.dram.rank1.averagePower   485.257582                       # Core power per rank (mW) (Watt)
system.mem_ctrls.dram.rank1.totalIdleTime            0                       # Total Idle time Per DRAM Rank (Tick)
system.mem_ctrls.dram.rank1.pwrStateTime::IDLE  46174302000                       # Time in different power states (Tick)
system.mem_ctrls.dram.rank1.pwrStateTime::REF   2149940000                       # Time in different power states (Tick)
system.mem_ctrls.dram.rank1.pwrStateTime::SREF            0                       # Time in different power states (Tick)
system.mem_ctrls.dram.rank1.pwrStateTime::PRE_PDN            0                       # Time in different power states (Tick)
system.mem_ctrls.dram.rank1.pwrStateTime::ACT  16061516000                       # Time in different power states (Tick)
system.mem_ctrls.dram.rank1.pwrStateTime::ACT_PDN            0                       # Time in different power states (Tick)
system.mem_ctrls.power_state.pwrStateResidencyTicks::UNDEFINED  64385758000                       # Cumulative time (in ticks) in various power states (Tick)
system.membus.transDist::ReadResp              128534                       # Transaction distribution (Count)
system.membus.transDist::WritebackDirty         10965                       # Transaction distribution (Count)
system.membus.transDist::WritebackClean        113280                       # Transaction distribution (Count)
system.membus.transDist::CleanEvict             10030                       # Transaction distribution (Count)
system.membus.transDist::ReadExReq               7275                       # Transaction distribution (Count)
system.membus.transDist::ReadExResp              7275                       # Transaction distribution (Count)
system.membus.transDist::ReadCleanReq          113791                       # Transaction distribution (Count)
system.membus.transDist::ReadSharedReq          14744                       # Transaction distribution (Count)
system.membus.pktCount_system.cpu.icache.mem_side_port::system.mem_ctrls.port       340861                       # Packet count per connected requestor and responder (Count)
system.membus.pktCount_system.cpu.icache.mem_side_port::total       340861                       # Packet count per connected requestor and responder (Count)
system.membus.pktCount_system.cpu.dcache.mem_side_port::system.mem_ctrls.port        65033                       # Packet count per connected requestor and responder (Count)
system.membus.pktCount_system.cpu.dcache.mem_side_port::total        65033                       # Packet count per connected requestor and responder (Count)
system.membus.pktCount::total                  405894                       # Packet count per connected requestor and responder (Count)
system.membus.pktSize_system.cpu.icache.mem_side_port::system.mem_ctrls.port     14532480                       # Cumulative packet size per connected requestor and responder (Byte)
system.membus.pktSize_system.cpu.icache.mem_side_port::total     14532480                       # Cumulative packet size per connected requestor and responder (Byte)
system.membus.pktSize_system.cpu.dcache.mem_side_port::system.mem_ctrls.port      2110976                       # Cumulative packet size per connected requestor and responder (Byte)
system.membus.pktSize_system.cpu.dcache.mem_side_port::total      2110976                       # Cumulative packet size per connected requestor and responder (Byte)
system.membus.pktSize::total                 16643456                       # Cumulative packet size per connected requestor and responder (Byte)
system.membus.snoops                                0                       # Total snoops (Count)
system.membus.snoopTraffic                          0                       # Total snoop traffic (Byte)
system.membus.snoopFanout::samples             135810                       # Request fanout histogram (Count)
system.membus.snoopFanout::mean              0.000015                       # Request fanout histogram (Count)
system.membus.snoopFanout::stdev             0.003837                       # Request fanout histogram (Count)
system.membus.snoopFanout::underflows               0      0.00%      0.00% # Request fanout histogram (Count)
system.membus.snoopFanout::0                   135808    100.00%    100.00% # Request fanout histogram (Count)
system.membus.snoopFanout::1                        2      0.00%    100.00% # Request fanout histogram (Count)
system.membus.snoopFanout::2                        0      0.00%    100.00% # Request fanout histogram (Count)
system.membus.snoopFanout::3                        0      0.00%    100.00% # Request fanout histogram (Count)
system.membus.snoopFanout::4                        0      0.00%    100.00% # Request fanout histogram (Count)
system.membus.snoopFanout::overflows                0      0.00%    100.00% # Request fanout histogram (Count)
system.membus.snoopFanout::min_value                0                       # Request fanout histogram (Count)
system.membus.snoopFanout::max_value                1                       # Request fanout histogram (Count)
system.membus.snoopFanout::total               135810                       # Request fanout histogram (Count)
system.membus.power_state.pwrStateResidencyTicks::UNDEFINED  64385758000                       # Cumulative time (in ticks) in various power states (Tick)
system.membus.reqLayer2.occupancy           791661500                       # Layer occupancy (ticks) (Tick)
system.membus.reqLayer2.utilization               0.0                       # Layer utilization (Ratio)
system.membus.respLayer1.occupancy          569415750                       # Layer occupancy (ticks) (Tick)
system.membus.respLayer1.utilization              0.0                       # Layer utilization (Ratio)
system.membus.respLayer2.occupancy          116468500                       # Layer occupancy (ticks) (Tick)
system.membus.respLayer2.utilization              0.0                       # Layer utilization (Ratio)
system.membus.snoop_filter.totRequests         270085                       # Total number of requests made to the snoop filter. (Count)
system.membus.snoop_filter.hitSingleRequests       134276                       # Number of requests hitting in the snoop filter with a single holder of the requested data. (Count)
system.membus.snoop_filter.hitMultiRequests            1                       # Number of requests hitting in the snoop filter with multiple (>1) holders of the requested data. (Count)
system.membus.snoop_filter.totSnoops                0                       # Total number of snoops made to the snoop filter. (Count)
system.membus.snoop_filter.hitSingleSnoops            0                       # Number of snoops hitting in the snoop filter with a single holder of the requested data. (Count)
system.membus.snoop_filter.hitMultiSnoops            0                       # Number of snoops hitting in the snoop filter with multiple (>1) holders of the requested data. (Count)
system.voltage_domain.voltage                       1                       # Voltage in Volts (Volt)
system.workload.inst.arm                            0                       # number of arm instructions executed (Count)
system.workload.inst.quiesce                        0                       # number of quiesce instructions executed (Count)
system.cpu.idleCycles                         6284930                       # Total number of cycles that the object has spent stopped (Unspecified)
system.cpu.tickCycles                       122486586                       # Number of cycles that the object actually ticked (Unspecified)

---------- End Simulation Statistics   ----------
