
---------- Begin Simulation Statistics ----------
simSeconds                                   0.051548                       # Number of seconds simulated (Second)
simTicks                                  51547631500                       # Number of ticks simulated (Tick)
finalTick                                 51547631500                       # Number of ticks from beginning of simulation (restored from checkpoints and never reset) (Tick)
simFreq                                  1000000000000                       # The number of ticks per simulated second ((Tick/Second))
hostSeconds                                    201.53                       # Real time elapsed on the host (Second)
hostTickRate                                255780542                       # The number of ticks simulated per host second (ticks/s) ((Tick/Second))
hostMemory                                     680996                       # Number of bytes of host memory used (Byte)
simInsts                                    117342592                       # Number of instructions simulated (Count)
simOps                                      124677405                       # Number of ops (including micro ops) simulated (Count)
hostInstRate                                   582256                       # Simulator instruction rate (inst/s) ((Count/Second))
hostOpRate                                     618652                       # Simulator op (including micro ops) rate (op/s) ((Count/Second))
system.clk_domain.clock                          1000                       # Clock period in ticks (Tick)
system.cpu.numCycles                        103095264                       # Number of cpu cycles simulated (Cycle)
system.cpu.numWorkItemsStarted                      0                       # Number of work items this cpu started (Count)
system.cpu.numWorkItemsCompleted                    0                       # Number of work items this cpu completed (Count)
system.cpu.instsAdded                       129876069                       # Number of instructions added to the IQ (excludes non-spec) (Count)
system.cpu.nonSpecInstsAdded                   196996                       # Number of non-speculative instructions added to the IQ (Count)
system.cpu.instsIssued                      129859906                       # Number of instructions issued (Count)
system.cpu.squashedInstsIssued                 229757                       # Number of squashed instructions issued (Count)
system.cpu.squashedInstsExamined              5395659                       # Number of squashed instructions iterated over during squash; mainly for profiling (Count)
system.cpu.squashedOperandsExamined           4260522                       # Number of squashed operands that are examined and possibly removed from graph (Count)
system.cpu.squashedNonSpecRemoved                 186                       # Number of squashed non-spec instructions that were removed (Count)
system.cpu.numIssuedDist::samples           102797439                       # Number of insts issued each cycle (Count)
system.cpu.numIssuedDist::mean               1.263260                       # Number of insts issued each cycle (Count)
system.cpu.numIssuedDist::stdev              1.798623                       # Number of insts issued each cycle (Count)
system.cpu.numIssuedDist::underflows                0      0.00%      0.00% # Number of insts issued each cycle (Count)
system.cpu.numIssuedDist::0                  54369653     52.89%     52.89% # Number of insts issued each cycle (Count)
system.cpu.numIssuedDist::1                  16133366     15.69%     68.58% # Number of insts issued each cycle (Count)
system.cpu.numIssuedDist::2                  10544105     10.26%     78.84% # Number of insts issued each cycle (Count)
system.cpu.numIssuedDist::3                   8615157      8.38%     87.22% # Number of insts issued each cycle (Count)
system.cpu.numIssuedDist::4                   6116570      5.95%     93.17% # Number of insts issued each cycle (Count)
system.cpu.numIssuedDist::5                   2850232      2.77%     95.95% # Number of insts issued each cycle (Count)
system.cpu.numIssuedDist::6                   1965344      1.91%     97.86% # Number of insts issued each cycle (Count)
system.cpu.numIssuedDist::7                   1340741      1.30%     99.16% # Number of insts issued each cycle (Count)
system.cpu.numIssuedDist::8                    862271      0.84%    100.00% # Number of insts issued each cycle (Count)
system.cpu.numIssuedDist::overflows                 0      0.00%    100.00% # Number of insts issued each cycle (Count)
system.cpu.numIssuedDist::min_value                 0                       # Number of insts issued each cycle (Count)
system.cpu.numIssuedDist::max_value                 8                       # Number of insts issued each cycle (Count)
system.cpu.numIssuedDist::total             102797439                       # Number of insts issued each cycle (Count)
system.cpu.statFuBusy::No_OpClass                   0      0.00%      0.00% # attempts to use FU when none available (Count)
system.cpu.statFuBusy::IntAlu                  300365     10.96%     10.96% # attempts to use FU when none available (Count)
system.cpu.statFuBusy::IntMult                 137713      5.03%     15.99% # attempts to use FU when none available (Count)
system.cpu.statFuBusy::IntDiv                       0      0.00%     15.99% # attempts to use FU when none available (Count)
system.cpu.statFuBusy::FloatAdd                     0      0.00%     15.99% # attempts to use FU when none available (Count)
system.cpu.statFuBusy::FloatCmp                     0      0.00%     15.99% # attempts to use FU when none available (Count)
system.cpu.statFuBusy::FloatCvt                     0      0.00%     15.99% # attempts to use FU when none available (Count)
system.cpu.statFuBusy::FloatMult                    0      0.00%     15.99% # attempts to use FU when none available (Count)
system.cpu.statFuBusy::FloatMultAcc                 0      0.00%     15.99% # attempts to use FU when none available (Count)
system.cpu.statFuBusy::FloatDiv                     0      0.00%     15.99% # attempts to use FU when none available (Count)
system.cpu.statFuBusy::FloatMisc                    0      0.00%     15.99% # attempts to use FU when none available (Count)
system.cpu.statFuBusy::FloatSqrt                    0      0.00%     15.99% # attempts to use FU when none available (Count)
system.cpu.statFuBusy::SimdAdd                      0      0.00%     15.99% # attempts to use FU when none available (Count)
system.cpu.statFuBusy::SimdAddAcc                   0      0.00%     15.99% # attempts to use FU when none available (Count)
system.cpu.statFuBusy::SimdAlu                      1      0.00%     15.99% # attempts to use FU when none available (Count)
system.cpu.statFuBusy::SimdCmp                      3      0.00%     15.99% # attempts to use FU when none available (Count)
system.cpu.statFuBusy::SimdCvt                      0      0.00%     15.99% # attempts to use FU when none available (Count)
system.cpu.statFuBusy::SimdMisc                     0      0.00%     15.99% # attempts to use FU when none available (Count)
system.cpu.statFuBusy::SimdMult                     0      0.00%     15.99% # attempts to use FU when none available (Count)
system.cpu.statFuBusy::SimdMultAcc                  0      0.00%     15.99% # attempts to use FU when none available (Count)
system.cpu.statFuBusy::SimdShift                    0      0.00%     15.99% # attempts to use FU when none available (Count)
system.cpu.statFuBusy::SimdShiftAcc                 0      0.00%     15.99% # attempts to use FU when none available (Count)
system.cpu.statFuBusy::SimdDiv                      0      0.00%     15.99% # attempts to use FU when none available (Count)
system.cpu.statFuBusy::SimdSqrt                     0      0.00%     15.99% # attempts to use FU when none available (Count)
system.cpu.statFuBusy::SimdFloatAdd                 0      0.00%     15.99% # attempts to use FU when none available (Count)
system.cpu.statFuBusy::SimdFloatAlu                 0      0.00%     15.99% # attempts to use FU when none available (Count)
system.cpu.statFuBusy::SimdFloatCmp                 0      0.00%     15.99% # attempts to use FU when none available (Count)
system.cpu.statFuBusy::SimdFloatCvt                 0      0.00%     15.99% # attempts to use FU when none available (Count)
system.cpu.statFuBusy::SimdFloatDiv                 0      0.00%     15.99% # attempts to use FU when none available (Count)
system.cpu.statFuBusy::SimdFloatMisc                0      0.00%     15.99% # attempts to use FU when none available (Count)
system.cpu.statFuBusy::SimdFloatMult                0      0.00%     15.99% # attempts to use FU when none available (Count)
system.cpu.statFuBusy::SimdFloatMultAcc             0      0.00%     15.99% # attempts to use FU when none available (Count)
system.cpu.statFuBusy::SimdFloatSqrt                0      0.00%     15.99% # attempts to use FU when none available (Count)
system.cpu.statFuBusy::SimdReduceAdd                0      0.00%     15.99% # attempts to use FU when none available (Count)
system.cpu.statFuBusy::SimdReduceAlu                0      0.00%     15.99% # attempts to use FU when none available (Count)
system.cpu.statFuBusy::SimdReduceCmp                0      0.00%     15.99% # attempts to use FU when none available (Count)
system.cpu.statFuBusy::SimdFloatReduceAdd            0      0.00%     15.99% # attempts to use FU when none available (Count)
system.cpu.statFuBusy::SimdFloatReduceCmp            0      0.00%     15.99% # attempts to use FU when none available (Count)
system.cpu.statFuBusy::SimdAes                      0      0.00%     15.99% # attempts to use FU when none available (Count)
system.cpu.statFuBusy::SimdAesMix                   0      0.00%     15.99% # attempts to use FU when none available (Count)
system.cpu.statFuBusy::SimdSha1Hash                 0      0.00%     15.99% # attempts to use FU when none available (Count)
system.cpu.statFuBusy::SimdSha1Hash2                0      0.00%     15.99% # attempts to use FU when none available (Count)
system.cpu.statFuBusy::SimdSha256Hash               0      0.00%     15.99% # attempts to use FU when none available (Count)
system.cpu.statFuBusy::SimdSha256Hash2              0      0.00%     15.99% # attempts to use FU when none available (Count)
system.cpu.statFuBusy::SimdShaSigma2                0      0.00%     15.99% # attempts to use FU when none available (Count)
system.cpu.statFuBusy::SimdShaSigma3                0      0.00%     15.99% # attempts to use FU when none available (Count)
system.cpu.statFuBusy::SimdPredAlu                  0      0.00%     15.99% # attempts to use FU when none available (Count)
system.cpu.statFuBusy::MemRead                1159049     42.31%     58.30% # attempts to use FU when none available (Count)
system.cpu.statFuBusy::MemWrite               1142247     41.70%    100.00% # attempts to use FU when none available (Count)
system.cpu.statFuBusy::FloatMemRead                 0      0.00%    100.00% # attempts to use FU when none available (Count)
system.cpu.statFuBusy::FloatMemWrite                0      0.00%    100.00% # attempts to use FU when none available (Count)
system.cpu.statFuBusy::IprAccess                    0      0.00%    100.00% # attempts to use FU when none available (Count)
system.cpu.statFuBusy::InstPrefetch                 0      0.00%    100.00% # attempts to use FU when none available (Count)
system.cpu.statIssuedInstType_0::No_OpClass       131152      0.10%      0.10% # Number of instructions issued per FU type, per thread (Count)
system.cpu.statIssuedInstType_0::IntAlu      76325123     58.77%     58.88% # Number of instructions issued per FU type, per thread (Count)
system.cpu.statIssuedInstType_0::IntMult       601584      0.46%     59.34% # Number of instructions issued per FU type, per thread (Count)
system.cpu.statIssuedInstType_0::IntDiv         25556      0.02%     59.36% # Number of instructions issued per FU type, per thread (Count)
system.cpu.statIssuedInstType_0::FloatAdd      2097972      1.62%     60.97% # Number of instructions issued per FU type, per thread (Count)
system.cpu.statIssuedInstType_0::FloatCmp        32768      0.03%     61.00% # Number of instructions issued per FU type, per thread (Count)
system.cpu.statIssuedInstType_0::FloatCvt            0      0.00%     61.00% # Number of instructions issued per FU type, per thread (Count)
system.cpu.statIssuedInstType_0::FloatMult      2097152      1.61%     62.61% # Number of instructions issued per FU type, per thread (Count)
system.cpu.statIssuedInstType_0::FloatMultAcc            0      0.00%     62.61% # Number of instructions issued per FU type, per thread (Count)
system.cpu.statIssuedInstType_0::FloatDiv            0      0.00%     62.61% # Number of instructions issued per FU type, per thread (Count)
system.cpu.statIssuedInstType_0::FloatMisc        52462      0.04%     62.66% # Number of instructions issued per FU type, per thread (Count)
system.cpu.statIssuedInstType_0::FloatSqrt            0      0.00%     62.66% # Number of instructions issued per FU type, per thread (Count)
system.cpu.statIssuedInstType_0::SimdAdd        65576      0.05%     62.71% # Number of instructions issued per FU type, per thread (Count)
system.cpu.statIssuedInstType_0::SimdAddAcc            0      0.00%     62.71% # Number of instructions issued per FU type, per thread (Count)
system.cpu.statIssuedInstType_0::SimdAlu       131140      0.10%     62.81% # Number of instructions issued per FU type, per thread (Count)
system.cpu.statIssuedInstType_0::SimdCmp       131136      0.10%     62.91% # Number of instructions issued per FU type, per thread (Count)
system.cpu.statIssuedInstType_0::SimdCvt            0      0.00%     62.91% # Number of instructions issued per FU type, per thread (Count)
system.cpu.statIssuedInstType_0::SimdMisc       130300      0.10%     63.01% # Number of instructions issued per FU type, per thread (Count)
system.cpu.statIssuedInstType_0::SimdMult            0      0.00%     63.01% # Number of instructions issued per FU type, per thread (Count)
system.cpu.statIssuedInstType_0::SimdMultAcc            0      0.00%     63.01% # Number of instructions issued per FU type, per thread (Count)
system.cpu.statIssuedInstType_0::SimdShift            0      0.00%     63.01% # Number of instructions issued per FU type, per thread (Count)
system.cpu.statIssuedInstType_0::SimdShiftAcc            0      0.00%     63.01% # Number of instructions issued per FU type, per thread (Count)
system.cpu.statIssuedInstType_0::SimdDiv            0      0.00%     63.01% # Number of instructions issued per FU type, per thread (Count)
system.cpu.statIssuedInstType_0::SimdSqrt            0      0.00%     63.01% # Number of instructions issued per FU type, per thread (Count)
system.cpu.statIssuedInstType_0::SimdFloatAdd            0      0.00%     63.01% # Number of instructions issued per FU type, per thread (Count)
system.cpu.statIssuedInstType_0::SimdFloatAlu            0      0.00%     63.01% # Number of instructions issued per FU type, per thread (Count)
system.cpu.statIssuedInstType_0::SimdFloatCmp            0      0.00%     63.01% # Number of instructions issued per FU type, per thread (Count)
system.cpu.statIssuedInstType_0::SimdFloatCvt            0      0.00%     63.01% # Number of instructions issued per FU type, per thread (Count)
system.cpu.statIssuedInstType_0::SimdFloatDiv            0      0.00%     63.01% # Number of instructions issued per FU type, per thread (Count)
system.cpu.statIssuedInstType_0::SimdFloatMisc            0      0.00%     63.01% # Number of instructions issued per FU type, per thread (Count)
system.cpu.statIssuedInstType_0::SimdFloatMult            0      0.00%     63.01% # Number of instructions issued per FU type, per thread (Count)
system.cpu.statIssuedInstType_0::SimdFloatMultAcc            0      0.00%     63.01% # Number of instructions issued per FU type, per thread (Count)
system.cpu.statIssuedInstType_0::SimdFloatSqrt            0      0.00%     63.01% # Number of instructions issued per FU type, per thread (Count)
system.cpu.statIssuedInstType_0::SimdReduceAdd            0      0.00%     63.01% # Number of instructions issued per FU type, per thread (Count)
system.cpu.statIssuedInstType_0::SimdReduceAlu            0      0.00%     63.01% # Number of instructions issued per FU type, per thread (Count)
system.cpu.statIssuedInstType_0::SimdReduceCmp            0      0.00%     63.01% # Number of instructions issued per FU type, per thread (Count)
system.cpu.statIssuedInstType_0::SimdFloatReduceAdd            0      0.00%     63.01% # Number of instructions issued per FU type, per thread (Count)
system.cpu.statIssuedInstType_0::SimdFloatReduceCmp            0      0.00%     63.01% # Number of instructions issued per FU type, per thread (Count)
system.cpu.statIssuedInstType_0::SimdAes            0      0.00%     63.01% # Number of instructions issued per FU type, per thread (Count)
system.cpu.statIssuedInstType_0::SimdAesMix            0      0.00%     63.01% # Number of instructions issued per FU type, per thread (Count)
system.cpu.statIssuedInstType_0::SimdSha1Hash            0      0.00%     63.01% # Number of instructions issued per FU type, per thread (Count)
system.cpu.statIssuedInstType_0::SimdSha1Hash2            0      0.00%     63.01% # Number of instructions issued per FU type, per thread (Count)
system.cpu.statIssuedInstType_0::SimdSha256Hash            0      0.00%     63.01% # Number of instructions issued per FU type, per thread (Count)
system.cpu.statIssuedInstType_0::SimdSha256Hash2            0      0.00%     63.01% # Number of instructions issued per FU type, per thread (Count)
system.cpu.statIssuedInstType_0::SimdShaSigma2            0      0.00%     63.01% # Number of instructions issued per FU type, per thread (Count)
system.cpu.statIssuedInstType_0::SimdShaSigma3            0      0.00%     63.01% # Number of instructions issued per FU type, per thread (Count)
system.cpu.statIssuedInstType_0::SimdPredAlu            0      0.00%     63.01% # Number of instructions issued per FU type, per thread (Count)
system.cpu.statIssuedInstType_0::MemRead     32772629     25.24%     88.24% # Number of instructions issued per FU type, per thread (Count)
system.cpu.statIssuedInstType_0::MemWrite     15265356     11.76%    100.00% # Number of instructions issued per FU type, per thread (Count)
system.cpu.statIssuedInstType_0::FloatMemRead            0      0.00%    100.00% # Number of instructions issued per FU type, per thread (Count)
system.cpu.statIssuedInstType_0::FloatMemWrite            0      0.00%    100.00% # Number of instructions issued per FU type, per thread (Count)
system.cpu.statIssuedInstType_0::IprAccess            0      0.00%    100.00% # Number of instructions issued per FU type, per thread (Count)
system.cpu.statIssuedInstType_0::InstPrefetch            0      0.00%    100.00% # Number of instructions issued per FU type, per thread (Count)
system.cpu.statIssuedInstType_0::total      129859906                       # Number of instructions issued per FU type, per thread (Count)
system.cpu.issueRate                         1.259611                       # Inst issue rate ((Count/Cycle))
system.cpu.fuBusy                             2739378                       # FU busy when requested (Count)
system.cpu.fuBusyRate                        0.021095                       # FU busy rate (busy events/executed inst) ((Count/Count))
system.cpu.intInstQueueReads                335333047                       # Number of integer instruction queue reads (Count)
system.cpu.intInstQueueWrites               119408249                       # Number of integer instruction queue writes (Count)
system.cpu.intInstQueueWakeupAccesses       113718432                       # Number of integer instruction queue wakeup accesses (Count)
system.cpu.fpInstQueueReads                         0                       # Number of floating instruction queue reads (Count)
system.cpu.fpInstQueueWrites                        0                       # Number of floating instruction queue writes (Count)
system.cpu.fpInstQueueWakeupAccesses                0                       # Number of floating instruction queue wakeup accesses (Count)
system.cpu.vecInstQueueReads                 30153339                       # Number of vector instruction queue reads (Count)
system.cpu.vecInstQueueWrites                16133536                       # Number of vector instruction queue writes (Count)
system.cpu.vecInstQueueWakeupAccesses        14534616                       # Number of vector instruction queue wakeup accesses (Count)
system.cpu.intAluAccesses                   117349490                       # Number of integer alu accesses (Count)
system.cpu.fpAluAccesses                            0                       # Number of floating point alu accesses (Count)
system.cpu.vecAluAccesses                    15118642                       # Number of vector alu accesses (Count)
system.cpu.numInsts                         129470246                       # Number of executed instructions (Count)
system.cpu.numLoadInsts                      32694334                       # Number of load instructions executed (Count)
system.cpu.numSquashedInsts                    389660                       # Number of squashed instructions skipped in execute (Count)
system.cpu.numSwp                                   0                       # Number of swp insts executed (Count)
system.cpu.numNop                              102219                       # Number of nop insts executed (Count)
system.cpu.numRefs                           47753656                       # Number of memory reference insts executed (Count)
system.cpu.numBranches                       16897426                       # Number of branches executed (Count)
system.cpu.numStoreInsts                     15059322                       # Number of stores executed (Count)
system.cpu.numRate                           1.255831                       # Inst execution rate ((Count/Cycle))
system.cpu.timesIdled                           12197                       # Number of times that the entire CPU went into an idle state and unscheduled itself (Count)
system.cpu.idleCycles                          297825                       # Total number of cycles that the CPU has spent unscheduled due to idling (Cycle)
system.cpu.committedInsts                   117342592                       # Number of Instructions Simulated (Count)
system.cpu.committedOps                     124677405                       # Number of Ops (including micro ops) Simulated (Count)
system.cpu.cpi                               0.878583                       # CPI: Cycles Per Instruction ((Cycle/Count))
system.cpu.totalCpi                          0.878583                       # CPI: Total CPI of All Threads ((Cycle/Count))
system.cpu.ipc                               1.138196                       # IPC: Instructions Per Cycle ((Count/Cycle))
system.cpu.totalIpc                          1.138196                       # IPC: Total IPC of All Threads ((Count/Cycle))
system.cpu.intRegfileReads                  144044438                       # Number of integer regfile reads (Count)
system.cpu.intRegfileWrites                  87678440                       # Number of integer regfile writes (Count)
system.cpu.vecRegfileReads                   12549618                       # number of vector regfile reads (Count)
system.cpu.vecRegfileWrites                  11188488                       # number of vector regfile writes (Count)
system.cpu.ccRegfileReads                    29467653                       # number of cc regfile reads (Count)
system.cpu.ccRegfileWrites                   29298356                       # number of cc regfile writes (Count)
system.cpu.miscRegfileReads                 279304101                       # number of misc regfile reads (Count)
system.cpu.miscRegfileWrites                  4441033                       # number of misc regfile writes (Count)
system.cpu.MemDepUnit__0.insertedLoads       31909516                       # Number of loads inserted to the mem dependence unit. (Count)
system.cpu.MemDepUnit__0.insertedStores      15844442                       # Number of stores inserted to the mem dependence unit. (Count)
system.cpu.MemDepUnit__0.conflictingLoads     10140649                       # Number of conflicting loads. (Count)
system.cpu.MemDepUnit__0.conflictingStores      3679203                       # Number of conflicting stores. (Count)
system.cpu.MemDepUnit__1.insertedLoads              0                       # Number of loads inserted to the mem dependence unit. (Count)
system.cpu.MemDepUnit__1.insertedStores             0                       # Number of stores inserted to the mem dependence unit. (Count)
system.cpu.MemDepUnit__1.conflictingLoads            0                       # Number of conflicting loads. (Count)
system.cpu.MemDepUnit__1.conflictingStores            0                       # Number of conflicting stores. (Count)
system.cpu.MemDepUnit__2.insertedLoads              0                       # Number of loads inserted to the mem dependence unit. (Count)
system.cpu.MemDepUnit__2.insertedStores             0                       # Number of stores inserted to the mem dependence unit. (Count)
system.cpu.MemDepUnit__2.conflictingLoads            0                       # Number of conflicting loads. (Count)
system.cpu.MemDepUnit__2.conflictingStores            0                       # Number of conflicting stores. (Count)
system.cpu.MemDepUnit__3.insertedLoads              0                       # Number of loads inserted to the mem dependence unit. (Count)
system.cpu.MemDepUnit__3.insertedStores             0                       # Number of stores inserted to the mem dependence unit. (Count)
system.cpu.MemDepUnit__3.conflictingLoads            0                       # Number of conflicting loads. (Count)
system.cpu.MemDepUnit__3.conflictingStores            0                       # Number of conflicting stores. (Count)
system.cpu.branchPred.lookups                17373870                       # Number of BP lookups (Count)
system.cpu.branchPred.condPredicted          12025561                       # Number of conditional branches predicted (Count)
system.cpu.branchPred.condIncorrect             79456                       # Number of conditional branches incorrect (Count)
system.cpu.branchPred.BTBLookups              8377355                       # Number of BTB lookups (Count)
system.cpu.branchPred.BTBHits                 8369329                       # Number of BTB hits (Count)
system.cpu.branchPred.BTBHitRatio            0.999042                       # BTB Hit Ratio (Ratio)
system.cpu.branchPred.RASUsed                  858415                       # Number of times the RAS was used to get a target. (Count)
system.cpu.branchPred.RASIncorrect                 38                       # Number of incorrect RAS predictions. (Count)
system.cpu.branchPred.indirectLookups          205449                       # Number of indirect predictor lookups. (Count)
system.cpu.branchPred.indirectHits             188127                       # Number of indirect target hits. (Count)
system.cpu.branchPred.indirectMisses            17322                       # Number of indirect misses. (Count)
system.cpu.branchPred.indirectMispredicted          198                       # Number of mispredicted indirect branches. (Count)
system.cpu.commit.commitSquashedInsts         5404796                       # The number of squashed insts skipped by commit (Count)
system.cpu.commit.commitNonSpecStalls          196810                       # The number of times commit has been forced to stall to communicate backwards (Count)
system.cpu.commit.branchMispredicts             77520                       # The number of times a branch was mispredicted (Count)
system.cpu.commit.numCommittedDist::samples    102055343                       # Number of insts commited each cycle (Count)
system.cpu.commit.numCommittedDist::mean     1.222647                       # Number of insts commited each cycle (Count)
system.cpu.commit.numCommittedDist::stdev     2.487780                       # Number of insts commited each cycle (Count)
system.cpu.commit.numCommittedDist::underflows            0      0.00%      0.00% # Number of insts commited each cycle (Count)
system.cpu.commit.numCommittedDist::0        71472724     70.03%     70.03% # Number of insts commited each cycle (Count)
system.cpu.commit.numCommittedDist::1         9984880      9.78%     79.82% # Number of insts commited each cycle (Count)
system.cpu.commit.numCommittedDist::2         4998892      4.90%     84.72% # Number of insts commited each cycle (Count)
system.cpu.commit.numCommittedDist::3         1887696      1.85%     86.56% # Number of insts commited each cycle (Count)
system.cpu.commit.numCommittedDist::4          817274      0.80%     87.37% # Number of insts commited each cycle (Count)
system.cpu.commit.numCommittedDist::5          552087      0.54%     87.91% # Number of insts commited each cycle (Count)
system.cpu.commit.numCommittedDist::6         2470317      2.42%     90.33% # Number of insts commited each cycle (Count)
system.cpu.commit.numCommittedDist::7          691276      0.68%     91.00% # Number of insts commited each cycle (Count)
system.cpu.commit.numCommittedDist::8         9180197      9.00%    100.00% # Number of insts commited each cycle (Count)
system.cpu.commit.numCommittedDist::overflows            0      0.00%    100.00% # Number of insts commited each cycle (Count)
system.cpu.commit.numCommittedDist::min_value            0                       # Number of insts commited each cycle (Count)
system.cpu.commit.numCommittedDist::max_value            8                       # Number of insts commited each cycle (Count)
system.cpu.commit.numCommittedDist::total    102055343                       # Number of insts commited each cycle (Count)
system.cpu.commit.instsCommitted            117442880                       # Number of instructions committed (Count)
system.cpu.commit.opsCommitted              124777693                       # Number of ops (including micro ops) committed (Count)
system.cpu.commit.memRefs                    45163837                       # Number of memory references committed (Count)
system.cpu.commit.loads                      31011659                       # Number of loads committed (Count)
system.cpu.commit.amos                          98358                       # Number of atomic instructions committed (Count)
system.cpu.commit.membars                       98368                       # Number of memory barriers committed (Count)
system.cpu.commit.branches                   16634603                       # Number of branches committed (Count)
system.cpu.commit.vectorInstructions         14142056                       # Number of committed Vector instructions. (Count)
system.cpu.commit.floating                          0                       # Number of committed floating point instructions. (Count)
system.cpu.commit.integer                   108916814                       # Number of committed integer instructions. (Count)
system.cpu.commit.functionCalls                844244                       # Number of function calls committed. (Count)
system.cpu.commit.committedInstType_0::No_OpClass       131141      0.11%      0.11% # Class of committed instruction (Count)
system.cpu.commit.committedInstType_0::IntAlu     74118529     59.40%     59.51% # Class of committed instruction (Count)
system.cpu.commit.committedInstType_0::IntMult       601176      0.48%     59.99% # Class of committed instruction (Count)
system.cpu.commit.committedInstType_0::IntDiv        25489      0.02%     60.01% # Class of committed instruction (Count)
system.cpu.commit.committedInstType_0::FloatAdd      2097972      1.68%     61.69% # Class of committed instruction (Count)
system.cpu.commit.committedInstType_0::FloatCmp        32768      0.03%     61.72% # Class of committed instruction (Count)
system.cpu.commit.committedInstType_0::FloatCvt            0      0.00%     61.72% # Class of committed instruction (Count)
system.cpu.commit.committedInstType_0::FloatMult      2097152      1.68%     63.40% # Class of committed instruction (Count)
system.cpu.commit.committedInstType_0::FloatMultAcc            0      0.00%     63.40% # Class of committed instruction (Count)
system.cpu.commit.committedInstType_0::FloatDiv            0      0.00%     63.40% # Class of committed instruction (Count)
system.cpu.commit.committedInstType_0::FloatMisc        51612      0.04%     63.44% # Class of committed instruction (Count)
system.cpu.commit.committedInstType_0::FloatSqrt            0      0.00%     63.44% # Class of committed instruction (Count)
system.cpu.commit.committedInstType_0::SimdAdd        65556      0.05%     63.49% # Class of committed instruction (Count)
system.cpu.commit.committedInstType_0::SimdAddAcc            0      0.00%     63.49% # Class of committed instruction (Count)
system.cpu.commit.committedInstType_0::SimdAlu       131098      0.11%     63.60% # Class of committed instruction (Count)
system.cpu.commit.committedInstType_0::SimdCmp       131092      0.11%     63.70% # Class of committed instruction (Count)
system.cpu.commit.committedInstType_0::SimdCvt            0      0.00%     63.70% # Class of committed instruction (Count)
system.cpu.commit.committedInstType_0::SimdMisc       130271      0.10%     63.80% # Class of committed instruction (Count)
system.cpu.commit.committedInstType_0::SimdMult            0      0.00%     63.80% # Class of committed instruction (Count)
system.cpu.commit.committedInstType_0::SimdMultAcc            0      0.00%     63.80% # Class of committed instruction (Count)
system.cpu.commit.committedInstType_0::SimdShift            0      0.00%     63.80% # Class of committed instruction (Count)
system.cpu.commit.committedInstType_0::SimdShiftAcc            0      0.00%     63.80% # Class of committed instruction (Count)
system.cpu.commit.committedInstType_0::SimdDiv            0      0.00%     63.80% # Class of committed instruction (Count)
system.cpu.commit.committedInstType_0::SimdSqrt            0      0.00%     63.80% # Class of committed instruction (Count)
system.cpu.commit.committedInstType_0::SimdFloatAdd            0      0.00%     63.80% # Class of committed instruction (Count)
system.cpu.commit.committedInstType_0::SimdFloatAlu            0      0.00%     63.80% # Class of committed instruction (Count)
system.cpu.commit.committedInstType_0::SimdFloatCmp            0      0.00%     63.80% # Class of committed instruction (Count)
system.cpu.commit.committedInstType_0::SimdFloatCvt            0      0.00%     63.80% # Class of committed instruction (Count)
system.cpu.commit.committedInstType_0::SimdFloatDiv            0      0.00%     63.80% # Class of committed instruction (Count)
system.cpu.commit.committedInstType_0::SimdFloatMisc            0      0.00%     63.80% # Class of committed instruction (Count)
system.cpu.commit.committedInstType_0::SimdFloatMult            0      0.00%     63.80% # Class of committed instruction (Count)
system.cpu.commit.committedInstType_0::SimdFloatMultAcc            0      0.00%     63.80% # Class of committed instruction (Count)
system.cpu.commit.committedInstType_0::SimdFloatSqrt            0      0.00%     63.80% # Class of committed instruction (Count)
system.cpu.commit.committedInstType_0::SimdReduceAdd            0      0.00%     63.80% # Class of committed instruction (Count)
system.cpu.commit.committedInstType_0::SimdReduceAlu            0      0.00%     63.80% # Class of committed instruction (Count)
system.cpu.commit.committedInstType_0::SimdReduceCmp            0      0.00%     63.80% # Class of committed instruction (Count)
system.cpu.commit.committedInstType_0::SimdFloatReduceAdd            0      0.00%     63.80% # Class of committed instruction (Count)
system.cpu.commit.committedInstType_0::SimdFloatReduceCmp            0      0.00%     63.80% # Class of committed instruction (Count)
system.cpu.commit.committedInstType_0::SimdAes            0      0.00%     63.80% # Class of committed instruction (Count)
system.cpu.commit.committedInstType_0::SimdAesMix            0      0.00%     63.80% # Class of committed instruction (Count)
system.cpu.commit.committedInstType_0::SimdSha1Hash            0      0.00%     63.80% # Class of committed instruction (Count)
system.cpu.commit.committedInstType_0::SimdSha1Hash2            0      0.00%     63.80% # Class of committed instruction (Count)
system.cpu.commit.committedInstType_0::SimdSha256Hash            0      0.00%     63.80% # Class of committed instruction (Count)
system.cpu.commit.committedInstType_0::SimdSha256Hash2            0      0.00%     63.80% # Class of committed instruction (Count)
system.cpu.commit.committedInstType_0::SimdShaSigma2            0      0.00%     63.80% # Class of committed instruction (Count)
system.cpu.commit.committedInstType_0::SimdShaSigma3            0      0.00%     63.80% # Class of committed instruction (Count)
system.cpu.commit.committedInstType_0::SimdPredAlu            0      0.00%     63.80% # Class of committed instruction (Count)
system.cpu.commit.committedInstType_0::MemRead     31011659     24.85%     88.66% # Class of committed instruction (Count)
system.cpu.commit.committedInstType_0::MemWrite     14152178     11.34%    100.00% # Class of committed instruction (Count)
system.cpu.commit.committedInstType_0::FloatMemRead            0      0.00%    100.00% # Class of committed instruction (Count)
system.cpu.commit.committedInstType_0::FloatMemWrite            0      0.00%    100.00% # Class of committed instruction (Count)
system.cpu.commit.committedInstType_0::IprAccess            0      0.00%    100.00% # Class of committed instruction (Count)
system.cpu.commit.committedInstType_0::InstPrefetch            0      0.00%    100.00% # Class of committed instruction (Count)
system.cpu.commit.committedInstType_0::total    124777693                       # Class of committed instruction (Count)
system.cpu.commit.commitEligibleSamples       9180197                       # number cycles where commit BW limit reached (Cycle)
system.cpu.dcache.demandHits::cpu.data       31715033                       # number of demand (read+write) hits (Count)
system.cpu.dcache.demandHits::total          31715033                       # number of demand (read+write) hits (Count)
system.cpu.dcache.overallHits::cpu.data      31753686                       # number of overall hits (Count)
system.cpu.dcache.overallHits::total         31753686                       # number of overall hits (Count)
system.cpu.dcache.demandMisses::cpu.data      2243701                       # number of demand (read+write) misses (Count)
system.cpu.dcache.demandMisses::total         2243701                       # number of demand (read+write) misses (Count)
system.cpu.dcache.overallMisses::cpu.data      2243783                       # number of overall misses (Count)
system.cpu.dcache.overallMisses::total        2243783                       # number of overall misses (Count)
system.cpu.dcache.demandMissLatency::cpu.data 129209364543                       # number of demand (read+write) miss ticks (Tick)
system.cpu.dcache.demandMissLatency::total 129209364543                       # number of demand (read+write) miss ticks (Tick)
system.cpu.dcache.overallMissLatency::cpu.data 129209364543                       # number of overall miss ticks (Tick)
system.cpu.dcache.overallMissLatency::total 129209364543                       # number of overall miss ticks (Tick)
system.cpu.dcache.demandAccesses::cpu.data     33958734                       # number of demand (read+write) accesses (Count)
system.cpu.dcache.demandAccesses::total      33958734                       # number of demand (read+write) accesses (Count)
system.cpu.dcache.overallAccesses::cpu.data     33997469                       # number of overall (read+write) accesses (Count)
system.cpu.dcache.overallAccesses::total     33997469                       # number of overall (read+write) accesses (Count)
system.cpu.dcache.demandMissRate::cpu.data     0.066071                       # miss rate for demand accesses (Ratio)
system.cpu.dcache.demandMissRate::total      0.066071                       # miss rate for demand accesses (Ratio)
system.cpu.dcache.overallMissRate::cpu.data     0.065999                       # miss rate for overall accesses (Ratio)
system.cpu.dcache.overallMissRate::total     0.065999                       # miss rate for overall accesses (Ratio)
system.cpu.dcache.demandAvgMissLatency::cpu.data 57587.603938                       # average overall miss latency ((Cycle/Count))
system.cpu.dcache.demandAvgMissLatency::total 57587.603938                       # average overall miss latency ((Cycle/Count))
system.cpu.dcache.overallAvgMissLatency::cpu.data 57585.499374                       # average overall miss latency ((Cycle/Count))
system.cpu.dcache.overallAvgMissLatency::total 57585.499374                       # average overall miss latency ((Cycle/Count))
system.cpu.dcache.blockedCycles::no_mshrs     40214808                       # number of cycles access was blocked (Cycle)
system.cpu.dcache.blockedCycles::no_targets          119                       # number of cycles access was blocked (Cycle)
system.cpu.dcache.blockedCauses::no_mshrs       821131                       # number of times access was blocked (Count)
system.cpu.dcache.blockedCauses::no_targets            1                       # number of times access was blocked (Count)
system.cpu.dcache.avgBlocked::no_mshrs      48.974899                       # average number of cycles each access was blocked ((Cycle/Count))
system.cpu.dcache.avgBlocked::no_targets          119                       # average number of cycles each access was blocked ((Cycle/Count))
system.cpu.dcache.writebacks::writebacks        29234                       # number of writebacks (Count)
system.cpu.dcache.writebacks::total             29234                       # number of writebacks (Count)
system.cpu.dcache.demandMshrHits::cpu.data        81179                       # number of demand (read+write) MSHR hits (Count)
system.cpu.dcache.demandMshrHits::total         81179                       # number of demand (read+write) MSHR hits (Count)
system.cpu.dcache.overallMshrHits::cpu.data        81179                       # number of overall MSHR hits (Count)
system.cpu.dcache.overallMshrHits::total        81179                       # number of overall MSHR hits (Count)
system.cpu.dcache.demandMshrMisses::cpu.data      2162522                       # number of demand (read+write) MSHR misses (Count)
system.cpu.dcache.demandMshrMisses::total      2162522                       # number of demand (read+write) MSHR misses (Count)
system.cpu.dcache.overallMshrMisses::cpu.data      2162604                       # number of overall MSHR misses (Count)
system.cpu.dcache.overallMshrMisses::total      2162604                       # number of overall MSHR misses (Count)
system.cpu.dcache.demandMshrMissLatency::cpu.data 124262261106                       # number of demand (read+write) MSHR miss ticks (Tick)
system.cpu.dcache.demandMshrMissLatency::total 124262261106                       # number of demand (read+write) MSHR miss ticks (Tick)
system.cpu.dcache.overallMshrMissLatency::cpu.data 124268179106                       # number of overall MSHR miss ticks (Tick)
system.cpu.dcache.overallMshrMissLatency::total 124268179106                       # number of overall MSHR miss ticks (Tick)
system.cpu.dcache.demandMshrMissRate::cpu.data     0.063681                       # mshr miss ratio for demand accesses (Ratio)
system.cpu.dcache.demandMshrMissRate::total     0.063681                       # mshr miss ratio for demand accesses (Ratio)
system.cpu.dcache.overallMshrMissRate::cpu.data     0.063611                       # mshr miss ratio for overall accesses (Ratio)
system.cpu.dcache.overallMshrMissRate::total     0.063611                       # mshr miss ratio for overall accesses (Ratio)
system.cpu.dcache.demandAvgMshrMissLatency::cpu.data 57461.732693                       # average overall mshr miss latency ((Cycle/Count))
system.cpu.dcache.demandAvgMshrMissLatency::total 57461.732693                       # average overall mshr miss latency ((Cycle/Count))
system.cpu.dcache.overallAvgMshrMissLatency::cpu.data 57462.290417                       # average overall mshr miss latency ((Cycle/Count))
system.cpu.dcache.overallAvgMshrMissLatency::total 57462.290417                       # average overall mshr miss latency ((Cycle/Count))
system.cpu.dcache.replacements                2162353                       # number of replacements (Count)
system.cpu.dcache.LoadLockedReq.hits::cpu.data           32                       # number of LoadLockedReq hits (Count)
system.cpu.dcache.LoadLockedReq.hits::total           32                       # number of LoadLockedReq hits (Count)
system.cpu.dcache.LoadLockedReq.misses::cpu.data            7                       # number of LoadLockedReq misses (Count)
system.cpu.dcache.LoadLockedReq.misses::total            7                       # number of LoadLockedReq misses (Count)
system.cpu.dcache.LoadLockedReq.missLatency::cpu.data       436500                       # number of LoadLockedReq miss ticks (Tick)
system.cpu.dcache.LoadLockedReq.missLatency::total       436500                       # number of LoadLockedReq miss ticks (Tick)
system.cpu.dcache.LoadLockedReq.accesses::cpu.data           39                       # number of LoadLockedReq accesses(hits+misses) (Count)
system.cpu.dcache.LoadLockedReq.accesses::total           39                       # number of LoadLockedReq accesses(hits+misses) (Count)
system.cpu.dcache.LoadLockedReq.missRate::cpu.data     0.179487                       # miss rate for LoadLockedReq accesses (Ratio)
system.cpu.dcache.LoadLockedReq.missRate::total     0.179487                       # miss rate for LoadLockedReq accesses (Ratio)
system.cpu.dcache.LoadLockedReq.avgMissLatency::cpu.data 62357.142857                       # average LoadLockedReq miss latency ((Tick/Count))
system.cpu.dcache.LoadLockedReq.avgMissLatency::total 62357.142857                       # average LoadLockedReq miss latency ((Tick/Count))
system.cpu.dcache.LoadLockedReq.mshrHits::cpu.data            2                       # number of LoadLockedReq MSHR hits (Count)
system.cpu.dcache.LoadLockedReq.mshrHits::total            2                       # number of LoadLockedReq MSHR hits (Count)
system.cpu.dcache.LoadLockedReq.mshrMisses::cpu.data            5                       # number of LoadLockedReq MSHR misses (Count)
system.cpu.dcache.LoadLockedReq.mshrMisses::total            5                       # number of LoadLockedReq MSHR misses (Count)
system.cpu.dcache.LoadLockedReq.mshrMissLatency::cpu.data       347500                       # number of LoadLockedReq MSHR miss ticks (Tick)
system.cpu.dcache.LoadLockedReq.mshrMissLatency::total       347500                       # number of LoadLockedReq MSHR miss ticks (Tick)
system.cpu.dcache.LoadLockedReq.mshrMissRate::cpu.data     0.128205                       # mshr miss rate for LoadLockedReq accesses (Ratio)
system.cpu.dcache.LoadLockedReq.mshrMissRate::total     0.128205                       # mshr miss rate for LoadLockedReq accesses (Ratio)
system.cpu.dcache.LoadLockedReq.avgMshrMissLatency::cpu.data        69500                       # average LoadLockedReq mshr miss latency ((Tick/Count))
system.cpu.dcache.LoadLockedReq.avgMshrMissLatency::total        69500                       # average LoadLockedReq mshr miss latency ((Tick/Count))
system.cpu.dcache.ReadReq.hits::cpu.data     17716915                       # number of ReadReq hits (Count)
system.cpu.dcache.ReadReq.hits::total        17716915                       # number of ReadReq hits (Count)
system.cpu.dcache.ReadReq.misses::cpu.data      2188001                       # number of ReadReq misses (Count)
system.cpu.dcache.ReadReq.misses::total       2188001                       # number of ReadReq misses (Count)
system.cpu.dcache.ReadReq.missLatency::cpu.data 127435198000                       # number of ReadReq miss ticks (Tick)
system.cpu.dcache.ReadReq.missLatency::total 127435198000                       # number of ReadReq miss ticks (Tick)
system.cpu.dcache.ReadReq.accesses::cpu.data     19904916                       # number of ReadReq accesses(hits+misses) (Count)
system.cpu.dcache.ReadReq.accesses::total     19904916                       # number of ReadReq accesses(hits+misses) (Count)
system.cpu.dcache.ReadReq.missRate::cpu.data     0.109923                       # miss rate for ReadReq accesses (Ratio)
system.cpu.dcache.ReadReq.missRate::total     0.109923                       # miss rate for ReadReq accesses (Ratio)
system.cpu.dcache.ReadReq.avgMissLatency::cpu.data 58242.751260                       # average ReadReq miss latency ((Tick/Count))
system.cpu.dcache.ReadReq.avgMissLatency::total 58242.751260                       # average ReadReq miss latency ((Tick/Count))
system.cpu.dcache.ReadReq.mshrHits::cpu.data        54523                       # number of ReadReq MSHR hits (Count)
system.cpu.dcache.ReadReq.mshrHits::total        54523                       # number of ReadReq MSHR hits (Count)
system.cpu.dcache.ReadReq.mshrMisses::cpu.data      2133478                       # number of ReadReq MSHR misses (Count)
system.cpu.dcache.ReadReq.mshrMisses::total      2133478                       # number of ReadReq MSHR misses (Count)
system.cpu.dcache.ReadReq.mshrMissLatency::cpu.data 123302553000                       # number of ReadReq MSHR miss ticks (Tick)
system.cpu.dcache.ReadReq.mshrMissLatency::total 123302553000                       # number of ReadReq MSHR miss ticks (Tick)
system.cpu.dcache.ReadReq.mshrMissRate::cpu.data     0.107183                       # mshr miss rate for ReadReq accesses (Ratio)
system.cpu.dcache.ReadReq.mshrMissRate::total     0.107183                       # mshr miss rate for ReadReq accesses (Ratio)
system.cpu.dcache.ReadReq.avgMshrMissLatency::cpu.data 57794.152553                       # average ReadReq mshr miss latency ((Tick/Count))
system.cpu.dcache.ReadReq.avgMshrMissLatency::total 57794.152553                       # average ReadReq mshr miss latency ((Tick/Count))
system.cpu.dcache.SoftPFReq.hits::cpu.data        38653                       # number of SoftPFReq hits (Count)
system.cpu.dcache.SoftPFReq.hits::total         38653                       # number of SoftPFReq hits (Count)
system.cpu.dcache.SoftPFReq.misses::cpu.data           82                       # number of SoftPFReq misses (Count)
system.cpu.dcache.SoftPFReq.misses::total           82                       # number of SoftPFReq misses (Count)
system.cpu.dcache.SoftPFReq.accesses::cpu.data        38735                       # number of SoftPFReq accesses(hits+misses) (Count)
system.cpu.dcache.SoftPFReq.accesses::total        38735                       # number of SoftPFReq accesses(hits+misses) (Count)
system.cpu.dcache.SoftPFReq.missRate::cpu.data     0.002117                       # miss rate for SoftPFReq accesses (Ratio)
system.cpu.dcache.SoftPFReq.missRate::total     0.002117                       # miss rate for SoftPFReq accesses (Ratio)
system.cpu.dcache.SoftPFReq.mshrMisses::cpu.data           82                       # number of SoftPFReq MSHR misses (Count)
system.cpu.dcache.SoftPFReq.mshrMisses::total           82                       # number of SoftPFReq MSHR misses (Count)
system.cpu.dcache.SoftPFReq.mshrMissLatency::cpu.data      5918000                       # number of SoftPFReq MSHR miss ticks (Tick)
system.cpu.dcache.SoftPFReq.mshrMissLatency::total      5918000                       # number of SoftPFReq MSHR miss ticks (Tick)
system.cpu.dcache.SoftPFReq.mshrMissRate::cpu.data     0.002117                       # mshr miss rate for SoftPFReq accesses (Ratio)
system.cpu.dcache.SoftPFReq.mshrMissRate::total     0.002117                       # mshr miss rate for SoftPFReq accesses (Ratio)
system.cpu.dcache.SoftPFReq.avgMshrMissLatency::cpu.data 72170.731707                       # average SoftPFReq mshr miss latency ((Tick/Count))
system.cpu.dcache.SoftPFReq.avgMshrMissLatency::total 72170.731707                       # average SoftPFReq mshr miss latency ((Tick/Count))
system.cpu.dcache.StoreCondReq.hits::cpu.data           10                       # number of StoreCondReq hits (Count)
system.cpu.dcache.StoreCondReq.hits::total           10                       # number of StoreCondReq hits (Count)
system.cpu.dcache.StoreCondReq.accesses::cpu.data           10                       # number of StoreCondReq accesses(hits+misses) (Count)
system.cpu.dcache.StoreCondReq.accesses::total           10                       # number of StoreCondReq accesses(hits+misses) (Count)
system.cpu.dcache.SwapReq.hits::cpu.data        98357                       # number of SwapReq hits (Count)
system.cpu.dcache.SwapReq.hits::total           98357                       # number of SwapReq hits (Count)
system.cpu.dcache.SwapReq.misses::cpu.data            1                       # number of SwapReq misses (Count)
system.cpu.dcache.SwapReq.misses::total             1                       # number of SwapReq misses (Count)
system.cpu.dcache.SwapReq.missLatency::cpu.data        66000                       # number of SwapReq miss ticks (Tick)
system.cpu.dcache.SwapReq.missLatency::total        66000                       # number of SwapReq miss ticks (Tick)
system.cpu.dcache.SwapReq.accesses::cpu.data        98358                       # number of SwapReq accesses(hits+misses) (Count)
system.cpu.dcache.SwapReq.accesses::total        98358                       # number of SwapReq accesses(hits+misses) (Count)
system.cpu.dcache.SwapReq.missRate::cpu.data     0.000010                       # miss rate for SwapReq accesses (Ratio)
system.cpu.dcache.SwapReq.missRate::total     0.000010                       # miss rate for SwapReq accesses (Ratio)
system.cpu.dcache.SwapReq.avgMissLatency::cpu.data        66000                       # average SwapReq miss latency ((Tick/Count))
system.cpu.dcache.SwapReq.avgMissLatency::total        66000                       # average SwapReq miss latency ((Tick/Count))
system.cpu.dcache.SwapReq.mshrHits::cpu.data            1                       # number of SwapReq MSHR hits (Count)
system.cpu.dcache.SwapReq.mshrHits::total            1                       # number of SwapReq MSHR hits (Count)
system.cpu.dcache.WriteLineReq.misses::cpu.data            9                       # number of WriteLineReq misses (Count)
system.cpu.dcache.WriteLineReq.misses::total            9                       # number of WriteLineReq misses (Count)
system.cpu.dcache.WriteLineReq.missLatency::cpu.data       100497                       # number of WriteLineReq miss ticks (Tick)
system.cpu.dcache.WriteLineReq.missLatency::total       100497                       # number of WriteLineReq miss ticks (Tick)
system.cpu.dcache.WriteLineReq.accesses::cpu.data            9                       # number of WriteLineReq accesses(hits+misses) (Count)
system.cpu.dcache.WriteLineReq.accesses::total            9                       # number of WriteLineReq accesses(hits+misses) (Count)
system.cpu.dcache.WriteLineReq.missRate::cpu.data            1                       # miss rate for WriteLineReq accesses (Ratio)
system.cpu.dcache.WriteLineReq.missRate::total            1                       # miss rate for WriteLineReq accesses (Ratio)
system.cpu.dcache.WriteLineReq.avgMissLatency::cpu.data 11166.333333                       # average WriteLineReq miss latency ((Tick/Count))
system.cpu.dcache.WriteLineReq.avgMissLatency::total 11166.333333                       # average WriteLineReq miss latency ((Tick/Count))
system.cpu.dcache.WriteLineReq.mshrMisses::cpu.data            9                       # number of WriteLineReq MSHR misses (Count)
system.cpu.dcache.WriteLineReq.mshrMisses::total            9                       # number of WriteLineReq MSHR misses (Count)
system.cpu.dcache.WriteLineReq.mshrMissLatency::cpu.data        91497                       # number of WriteLineReq MSHR miss ticks (Tick)
system.cpu.dcache.WriteLineReq.mshrMissLatency::total        91497                       # number of WriteLineReq MSHR miss ticks (Tick)
system.cpu.dcache.WriteLineReq.mshrMissRate::cpu.data            1                       # mshr miss rate for WriteLineReq accesses (Ratio)
system.cpu.dcache.WriteLineReq.mshrMissRate::total            1                       # mshr miss rate for WriteLineReq accesses (Ratio)
system.cpu.dcache.WriteLineReq.avgMshrMissLatency::cpu.data 10166.333333                       # average WriteLineReq mshr miss latency ((Tick/Count))
system.cpu.dcache.WriteLineReq.avgMshrMissLatency::total 10166.333333                       # average WriteLineReq mshr miss latency ((Tick/Count))
system.cpu.dcache.WriteReq.hits::cpu.data     13998118                       # number of WriteReq hits (Count)
system.cpu.dcache.WriteReq.hits::total       13998118                       # number of WriteReq hits (Count)
system.cpu.dcache.WriteReq.misses::cpu.data        55691                       # number of WriteReq misses (Count)
system.cpu.dcache.WriteReq.misses::total        55691                       # number of WriteReq misses (Count)
system.cpu.dcache.WriteReq.missLatency::cpu.data   1774066046                       # number of WriteReq miss ticks (Tick)
system.cpu.dcache.WriteReq.missLatency::total   1774066046                       # number of WriteReq miss ticks (Tick)
system.cpu.dcache.WriteReq.accesses::cpu.data     14053809                       # number of WriteReq accesses(hits+misses) (Count)
system.cpu.dcache.WriteReq.accesses::total     14053809                       # number of WriteReq accesses(hits+misses) (Count)
system.cpu.dcache.WriteReq.missRate::cpu.data     0.003963                       # miss rate for WriteReq accesses (Ratio)
system.cpu.dcache.WriteReq.missRate::total     0.003963                       # miss rate for WriteReq accesses (Ratio)
system.cpu.dcache.WriteReq.avgMissLatency::cpu.data 31855.525058                       # average WriteReq miss latency ((Tick/Count))
system.cpu.dcache.WriteReq.avgMissLatency::total 31855.525058                       # average WriteReq miss latency ((Tick/Count))
system.cpu.dcache.WriteReq.mshrHits::cpu.data        26656                       # number of WriteReq MSHR hits (Count)
system.cpu.dcache.WriteReq.mshrHits::total        26656                       # number of WriteReq MSHR hits (Count)
system.cpu.dcache.WriteReq.mshrMisses::cpu.data        29035                       # number of WriteReq MSHR misses (Count)
system.cpu.dcache.WriteReq.mshrMisses::total        29035                       # number of WriteReq MSHR misses (Count)
system.cpu.dcache.WriteReq.mshrMissLatency::cpu.data    959616609                       # number of WriteReq MSHR miss ticks (Tick)
system.cpu.dcache.WriteReq.mshrMissLatency::total    959616609                       # number of WriteReq MSHR miss ticks (Tick)
system.cpu.dcache.WriteReq.mshrMissRate::cpu.data     0.002066                       # mshr miss rate for WriteReq accesses (Ratio)
system.cpu.dcache.WriteReq.mshrMissRate::total     0.002066                       # mshr miss rate for WriteReq accesses (Ratio)
system.cpu.dcache.WriteReq.avgMshrMissLatency::cpu.data 33050.339556                       # average WriteReq mshr miss latency ((Tick/Count))
system.cpu.dcache.WriteReq.avgMshrMissLatency::total 33050.339556                       # average WriteReq mshr miss latency ((Tick/Count))
system.cpu.dcache.power_state.pwrStateResidencyTicks::UNDEFINED  51547631500                       # Cumulative time (in ticks) in various power states (Tick)
system.cpu.dcache.tags.tagsInUse           255.920044                       # Average ticks per tags in use ((Tick/Count))
system.cpu.dcache.tags.totalRefs             34014694                       # Total number of references to valid blocks. (Count)
system.cpu.dcache.tags.sampledRefs            2162609                       # Sample count of references to valid blocks. (Count)
system.cpu.dcache.tags.avgRefs              15.728545                       # Average number of references to valid blocks. ((Count/Count))
system.cpu.dcache.tags.warmupTick              145000                       # The tick when the warmup percentage was hit. (Tick)
system.cpu.dcache.tags.occupancies::cpu.data   255.920044                       # Average occupied blocks per tick, per requestor ((Count/Tick))
system.cpu.dcache.tags.avgOccs::cpu.data     0.999688                       # Average percentage of cache occupancy ((Ratio/Tick))
system.cpu.dcache.tags.avgOccs::total        0.999688                       # Average percentage of cache occupancy ((Ratio/Tick))
system.cpu.dcache.tags.occupanciesTaskId::1024          256                       # Occupied blocks per task id (Count)
system.cpu.dcache.tags.ageTaskId_1024::0           62                       # Occupied blocks per task id, per block age (Count)
system.cpu.dcache.tags.ageTaskId_1024::1           26                       # Occupied blocks per task id, per block age (Count)
system.cpu.dcache.tags.ageTaskId_1024::2           70                       # Occupied blocks per task id, per block age (Count)
system.cpu.dcache.tags.ageTaskId_1024::3           98                       # Occupied blocks per task id, per block age (Count)
system.cpu.dcache.tags.ratioOccsTaskId::1024            1                       # Ratio of occupied blocks and all blocks, per task id (Ratio)
system.cpu.dcache.tags.tagAccesses           70354361                       # Number of tag accesses (Count)
system.cpu.dcache.tags.dataAccesses          70354361                       # Number of data accesses (Count)
system.cpu.dcache.tags.power_state.pwrStateResidencyTicks::UNDEFINED  51547631500                       # Cumulative time (in ticks) in various power states (Tick)
system.cpu.decode.idleCycles                 11105124                       # Number of cycles decode is idle (Cycle)
system.cpu.decode.blockedCycles              69964728                       # Number of cycles decode is blocked (Cycle)
system.cpu.decode.runCycles                  16448068                       # Number of cycles decode is running (Cycle)
system.cpu.decode.unblockCycles               5129014                       # Number of cycles decode is unblocking (Cycle)
system.cpu.decode.squashCycles                 150505                       # Number of cycles decode is squashing (Cycle)
system.cpu.decode.branchResolved              8288178                       # Number of times decode resolved a branch (Count)
system.cpu.decode.branchMispred                  1946                       # Number of times decode detected a branch misprediction (Count)
system.cpu.decode.decodedInsts              131812659                       # Number of instructions handled by decode (Count)
system.cpu.decode.squashedInsts                 11937                       # Number of squashed instructions handled by decode (Count)
system.cpu.fetch.icacheStallCycles           17092850                       # Number of cycles fetch is stalled on an Icache miss (Cycle)
system.cpu.fetch.insts                      124742601                       # Number of instructions fetch has processed (Count)
system.cpu.fetch.branches                    17373870                       # Number of branches that fetch encountered (Count)
system.cpu.fetch.predictedBranches            9415871                       # Number of branches that fetch has predicted taken (Count)
system.cpu.fetch.cycles                      85552053                       # Number of cycles fetch has run and was not squashing or blocked (Cycle)
system.cpu.fetch.squashCycles                  304882                       # Number of cycles fetch has spent squashing (Cycle)
system.cpu.fetch.miscStallCycles                    6                       # Number of cycles fetch has spent waiting on interrupts, or bad addresses, or out of MSHRs (Cycle)
system.cpu.fetch.icacheWaitRetryStallCycles           89                       # Number of stall cycles due to full MSHR (Cycle)
system.cpu.fetch.cacheLines                  16642522                       # Number of cache lines fetched (Count)
system.cpu.fetch.icacheSquashes                 47264                       # Number of outstanding Icache misses that were squashed (Count)
system.cpu.fetch.nisnDist::samples          102797439                       # Number of instructions fetched each cycle (Total) (Count)
system.cpu.fetch.nisnDist::mean              1.303857                       # Number of instructions fetched each cycle (Total) (Count)
system.cpu.fetch.nisnDist::stdev             2.632509                       # Number of instructions fetched each cycle (Total) (Count)
system.cpu.fetch.nisnDist::underflows               0      0.00%      0.00% # Number of instructions fetched each cycle (Total) (Count)
system.cpu.fetch.nisnDist::0                 75238696     73.19%     73.19% # Number of instructions fetched each cycle (Total) (Count)
system.cpu.fetch.nisnDist::1                  6255896      6.09%     79.28% # Number of instructions fetched each cycle (Total) (Count)
system.cpu.fetch.nisnDist::2                  2898190      2.82%     82.10% # Number of instructions fetched each cycle (Total) (Count)
system.cpu.fetch.nisnDist::3                  1751761      1.70%     83.80% # Number of instructions fetched each cycle (Total) (Count)
system.cpu.fetch.nisnDist::4                  2030624      1.98%     85.78% # Number of instructions fetched each cycle (Total) (Count)
system.cpu.fetch.nisnDist::5                  1223232      1.19%     86.97% # Number of instructions fetched each cycle (Total) (Count)
system.cpu.fetch.nisnDist::6                  1756736      1.71%     88.67% # Number of instructions fetched each cycle (Total) (Count)
system.cpu.fetch.nisnDist::7                  1191887      1.16%     89.83% # Number of instructions fetched each cycle (Total) (Count)
system.cpu.fetch.nisnDist::8                 10450417     10.17%    100.00% # Number of instructions fetched each cycle (Total) (Count)
system.cpu.fetch.nisnDist::overflows                0      0.00%    100.00% # Number of instructions fetched each cycle (Total) (Count)
system.cpu.fetch.nisnDist::min_value                0                       # Number of instructions fetched each cycle (Total) (Count)
system.cpu.fetch.nisnDist::max_value                8                       # Number of instructions fetched each cycle (Total) (Count)
system.cpu.fetch.nisnDist::total            102797439                       # Number of instructions fetched each cycle (Total) (Count)
system.cpu.fetch.branchRate                  0.168522                       # Number of branch fetches per cycle (Ratio)
system.cpu.fetch.rate                        1.209974                       # Number of inst fetches per cycle ((Count/Cycle))
system.cpu.icache.demandHits::cpu.inst       16628293                       # number of demand (read+write) hits (Count)
system.cpu.icache.demandHits::total          16628293                       # number of demand (read+write) hits (Count)
system.cpu.icache.overallHits::cpu.inst      16628293                       # number of overall hits (Count)
system.cpu.icache.overallHits::total         16628293                       # number of overall hits (Count)
system.cpu.icache.demandMisses::cpu.inst        14229                       # number of demand (read+write) misses (Count)
system.cpu.icache.demandMisses::total           14229                       # number of demand (read+write) misses (Count)
system.cpu.icache.overallMisses::cpu.inst        14229                       # number of overall misses (Count)
system.cpu.icache.overallMisses::total          14229                       # number of overall misses (Count)
system.cpu.icache.demandMissLatency::cpu.inst    405975497                       # number of demand (read+write) miss ticks (Tick)
system.cpu.icache.demandMissLatency::total    405975497                       # number of demand (read+write) miss ticks (Tick)
system.cpu.icache.overallMissLatency::cpu.inst    405975497                       # number of overall miss ticks (Tick)
system.cpu.icache.overallMissLatency::total    405975497                       # number of overall miss ticks (Tick)
system.cpu.icache.demandAccesses::cpu.inst     16642522                       # number of demand (read+write) accesses (Count)
system.cpu.icache.demandAccesses::total      16642522                       # number of demand (read+write) accesses (Count)
system.cpu.icache.overallAccesses::cpu.inst     16642522                       # number of overall (read+write) accesses (Count)
system.cpu.icache.overallAccesses::total     16642522                       # number of overall (read+write) accesses (Count)
system.cpu.icache.demandMissRate::cpu.inst     0.000855                       # miss rate for demand accesses (Ratio)
system.cpu.icache.demandMissRate::total      0.000855                       # miss rate for demand accesses (Ratio)
system.cpu.icache.overallMissRate::cpu.inst     0.000855                       # miss rate for overall accesses (Ratio)
system.cpu.icache.overallMissRate::total     0.000855                       # miss rate for overall accesses (Ratio)
system.cpu.icache.demandAvgMissLatency::cpu.inst 28531.555064                       # average overall miss latency ((Cycle/Count))
system.cpu.icache.demandAvgMissLatency::total 28531.555064                       # average overall miss latency ((Cycle/Count))
system.cpu.icache.overallAvgMissLatency::cpu.inst 28531.555064                       # average overall miss latency ((Cycle/Count))
system.cpu.icache.overallAvgMissLatency::total 28531.555064                       # average overall miss latency ((Cycle/Count))
system.cpu.icache.blockedCycles::no_mshrs         1385                       # number of cycles access was blocked (Cycle)
system.cpu.icache.blockedCycles::no_targets            0                       # number of cycles access was blocked (Cycle)
system.cpu.icache.blockedCauses::no_mshrs           22                       # number of times access was blocked (Count)
system.cpu.icache.blockedCauses::no_targets            0                       # number of times access was blocked (Count)
system.cpu.icache.avgBlocked::no_mshrs      62.954545                       # average number of cycles each access was blocked ((Cycle/Count))
system.cpu.icache.avgBlocked::no_targets          nan                       # average number of cycles each access was blocked ((Cycle/Count))
system.cpu.icache.writebacks::writebacks        12879                       # number of writebacks (Count)
system.cpu.icache.writebacks::total             12879                       # number of writebacks (Count)
system.cpu.icache.demandMshrHits::cpu.inst          850                       # number of demand (read+write) MSHR hits (Count)
system.cpu.icache.demandMshrHits::total           850                       # number of demand (read+write) MSHR hits (Count)
system.cpu.icache.overallMshrHits::cpu.inst          850                       # number of overall MSHR hits (Count)
system.cpu.icache.overallMshrHits::total          850                       # number of overall MSHR hits (Count)
system.cpu.icache.demandMshrMisses::cpu.inst        13379                       # number of demand (read+write) MSHR misses (Count)
system.cpu.icache.demandMshrMisses::total        13379                       # number of demand (read+write) MSHR misses (Count)
system.cpu.icache.overallMshrMisses::cpu.inst        13379                       # number of overall MSHR misses (Count)
system.cpu.icache.overallMshrMisses::total        13379                       # number of overall MSHR misses (Count)
system.cpu.icache.demandMshrMissLatency::cpu.inst    368311998                       # number of demand (read+write) MSHR miss ticks (Tick)
system.cpu.icache.demandMshrMissLatency::total    368311998                       # number of demand (read+write) MSHR miss ticks (Tick)
system.cpu.icache.overallMshrMissLatency::cpu.inst    368311998                       # number of overall MSHR miss ticks (Tick)
system.cpu.icache.overallMshrMissLatency::total    368311998                       # number of overall MSHR miss ticks (Tick)
system.cpu.icache.demandMshrMissRate::cpu.inst     0.000804                       # mshr miss ratio for demand accesses (Ratio)
system.cpu.icache.demandMshrMissRate::total     0.000804                       # mshr miss ratio for demand accesses (Ratio)
system.cpu.icache.overallMshrMissRate::cpu.inst     0.000804                       # mshr miss ratio for overall accesses (Ratio)
system.cpu.icache.overallMshrMissRate::total     0.000804                       # mshr miss ratio for overall accesses (Ratio)
system.cpu.icache.demandAvgMshrMissLatency::cpu.inst 27529.112639                       # average overall mshr miss latency ((Cycle/Count))
system.cpu.icache.demandAvgMshrMissLatency::total 27529.112639                       # average overall mshr miss latency ((Cycle/Count))
system.cpu.icache.overallAvgMshrMissLatency::cpu.inst 27529.112639                       # average overall mshr miss latency ((Cycle/Count))
system.cpu.icache.overallAvgMshrMissLatency::total 27529.112639                       # average overall mshr miss latency ((Cycle/Count))
system.cpu.icache.replacements                  12879                       # number of replacements (Count)
system.cpu.icache.ReadReq.hits::cpu.inst     16628293                       # number of ReadReq hits (Count)
system.cpu.icache.ReadReq.hits::total        16628293                       # number of ReadReq hits (Count)
system.cpu.icache.ReadReq.misses::cpu.inst        14229                       # number of ReadReq misses (Count)
system.cpu.icache.ReadReq.misses::total         14229                       # number of ReadReq misses (Count)
system.cpu.icache.ReadReq.missLatency::cpu.inst    405975497                       # number of ReadReq miss ticks (Tick)
system.cpu.icache.ReadReq.missLatency::total    405975497                       # number of ReadReq miss ticks (Tick)
system.cpu.icache.ReadReq.accesses::cpu.inst     16642522                       # number of ReadReq accesses(hits+misses) (Count)
system.cpu.icache.ReadReq.accesses::total     16642522                       # number of ReadReq accesses(hits+misses) (Count)
system.cpu.icache.ReadReq.missRate::cpu.inst     0.000855                       # miss rate for ReadReq accesses (Ratio)
system.cpu.icache.ReadReq.missRate::total     0.000855                       # miss rate for ReadReq accesses (Ratio)
system.cpu.icache.ReadReq.avgMissLatency::cpu.inst 28531.555064                       # average ReadReq miss latency ((Tick/Count))
system.cpu.icache.ReadReq.avgMissLatency::total 28531.555064                       # average ReadReq miss latency ((Tick/Count))
system.cpu.icache.ReadReq.mshrHits::cpu.inst          850                       # number of ReadReq MSHR hits (Count)
system.cpu.icache.ReadReq.mshrHits::total          850                       # number of ReadReq MSHR hits (Count)
system.cpu.icache.ReadReq.mshrMisses::cpu.inst        13379                       # number of ReadReq MSHR misses (Count)
system.cpu.icache.ReadReq.mshrMisses::total        13379                       # number of ReadReq MSHR misses (Count)
system.cpu.icache.ReadReq.mshrMissLatency::cpu.inst    368311998                       # number of ReadReq MSHR miss ticks (Tick)
system.cpu.icache.ReadReq.mshrMissLatency::total    368311998                       # number of ReadReq MSHR miss ticks (Tick)
system.cpu.icache.ReadReq.mshrMissRate::cpu.inst     0.000804                       # mshr miss rate for ReadReq accesses (Ratio)
system.cpu.icache.ReadReq.mshrMissRate::total     0.000804                       # mshr miss rate for ReadReq accesses (Ratio)
system.cpu.icache.ReadReq.avgMshrMissLatency::cpu.inst 27529.112639                       # average ReadReq mshr miss latency ((Tick/Count))
system.cpu.icache.ReadReq.avgMshrMissLatency::total 27529.112639                       # average ReadReq mshr miss latency ((Tick/Count))
system.cpu.icache.power_state.pwrStateResidencyTicks::UNDEFINED  51547631500                       # Cumulative time (in ticks) in various power states (Tick)
system.cpu.icache.tags.tagsInUse           492.995471                       # Average ticks per tags in use ((Tick/Count))
system.cpu.icache.tags.totalRefs             16641671                       # Total number of references to valid blocks. (Count)
system.cpu.icache.tags.sampledRefs              13378                       # Sample count of references to valid blocks. (Count)
system.cpu.icache.tags.avgRefs            1243.958065                       # Average number of references to valid blocks. ((Count/Count))
system.cpu.icache.tags.warmupTick               77000                       # The tick when the warmup percentage was hit. (Tick)
system.cpu.icache.tags.occupancies::cpu.inst   492.995471                       # Average occupied blocks per tick, per requestor ((Count/Tick))
system.cpu.icache.tags.avgOccs::cpu.inst     0.962882                       # Average percentage of cache occupancy ((Ratio/Tick))
system.cpu.icache.tags.avgOccs::total        0.962882                       # Average percentage of cache occupancy ((Ratio/Tick))
system.cpu.icache.tags.occupanciesTaskId::1024          499                       # Occupied blocks per task id (Count)
system.cpu.icache.tags.ageTaskId_1024::0           89                       # Occupied blocks per task id, per block age (Count)
system.cpu.icache.tags.ageTaskId_1024::1            3                       # Occupied blocks per task id, per block age (Count)
system.cpu.icache.tags.ageTaskId_1024::2           12                       # Occupied blocks per task id, per block age (Count)
system.cpu.icache.tags.ageTaskId_1024::3          184                       # Occupied blocks per task id, per block age (Count)
system.cpu.icache.tags.ageTaskId_1024::4          211                       # Occupied blocks per task id, per block age (Count)
system.cpu.icache.tags.ratioOccsTaskId::1024     0.974609                       # Ratio of occupied blocks and all blocks, per task id (Ratio)
system.cpu.icache.tags.tagAccesses           33298422                       # Number of tag accesses (Count)
system.cpu.icache.tags.dataAccesses          33298422                       # Number of data accesses (Count)
system.cpu.icache.tags.power_state.pwrStateResidencyTicks::UNDEFINED  51547631500                       # Cumulative time (in ticks) in various power states (Tick)
system.cpu.iew.idleCycles                           0                       # Number of cycles IEW is idle (Cycle)
system.cpu.iew.squashCycles                    150505                       # Number of cycles IEW is squashing (Cycle)
system.cpu.iew.blockCycles                    1571610                       # Number of cycles IEW is blocking (Cycle)
[...]
system.mem_ctrls.dram.bwRead::cpu.inst       16609725                       # Total read bandwidth from this memory ((Byte/Second))
system.mem_ctrls.dram.bwRead::cpu.data     2684993509                       # Total read bandwidth from this memory ((Byte/Second))
system.mem_ctrls.dram.bwRead::total        2701603235                       # Total read bandwidth from this memory ((Byte/Second))
system.mem_ctrls.dram.bwInstRead::cpu.inst     16609725                       # Instruction read bandwidth from this memory ((Byte/Second))
system.mem_ctrls.dram.bwInstRead::total      16609725                       # Instruction read bandwidth from this memory ((Byte/Second))
system.mem_ctrls.dram.bwWrite::writebacks     36296061                       # Write bandwidth from this memory ((Byte/Second))
system.mem_ctrls.dram.bwWrite::total         36296061                       # Write bandwidth from this memory ((Byte/Second))
system.mem_ctrls.dram.bwTotal::writebacks     36296061                       # Total bandwidth to/from this memory ((Byte/Second))
system.mem_ctrls.dram.bwTotal::cpu.inst      16609725                       # Total bandwidth to/from this memory ((Byte/Second))
system.mem_ctrls.dram.bwTotal::cpu.data    2684993509                       # Total bandwidth to/from this memory ((Byte/Second))
system.mem_ctrls.dram.bwTotal::total       2737899296                       # Total bandwidth to/from this memory ((Byte/Second))
system.mem_ctrls.dram.readBursts              2141854                       # Number of DRAM read bursts (Count)
system.mem_ctrls.dram.writeBursts               10249                       # Number of DRAM write bursts (Count)
system.mem_ctrls.dram.perBankRdBursts::0       133059                       # Per bank write bursts (Count)
system.mem_ctrls.dram.perBankRdBursts::1       133395                       # Per bank write bursts (Count)
system.mem_ctrls.dram.perBankRdBursts::2       133188                       # Per bank write bursts (Count)
system.mem_ctrls.dram.perBankRdBursts::3       133130                       # Per bank write bursts (Count)
system.mem_ctrls.dram.perBankRdBursts::4       134754                       # Per bank write bursts (Count)
system.mem_ctrls.dram.perBankRdBursts::5       133703                       # Per bank write bursts (Count)
system.mem_ctrls.dram.perBankRdBursts::6       132886                       # Per bank write bursts (Count)
system.mem_ctrls.dram.perBankRdBursts::7       136514                       # Per bank write bursts (Count)
system.mem_ctrls.dram.perBankRdBursts::8       134821                       # Per bank write bursts (Count)
system.mem_ctrls.dram.perBankRdBursts::9       133049                       # Per bank write bursts (Count)
system.mem_ctrls.dram.perBankRdBursts::10       135560                       # Per bank write bursts (Count)
system.mem_ctrls.dram.perBankRdBursts::11       133146                       # Per bank write bursts (Count)
system.mem_ctrls.dram.perBankRdBursts::12       135713                       # Per bank write bursts (Count)
system.mem_ctrls.dram.perBankRdBursts::13       132984                       # Per bank write bursts (Count)
system.mem_ctrls.dram.perBankRdBursts::14       132983                       # Per bank write bursts (Count)
system.mem_ctrls.dram.perBankRdBursts::15       132969                       # Per bank write bursts (Count)
system.mem_ctrls.dram.perBankWrBursts::0          478                       # Per bank write bursts (Count)
system.mem_ctrls.dram.perBankWrBursts::1          544                       # Per bank write bursts (Count)
system.mem_ctrls.dram.perBankWrBursts::2          596                       # Per bank write bursts (Count)
system.mem_ctrls.dram.perBankWrBursts::3          699                       # Per bank write bursts (Count)
system.mem_ctrls.dram.perBankWrBursts::4          521                       # Per bank write bursts (Count)
system.mem_ctrls.dram.perBankWrBursts::5          667                       # Per bank write bursts (Count)
system.mem_ctrls.dram.perBankWrBursts::6          889                       # Per bank write bursts (Count)
system.mem_ctrls.dram.perBankWrBursts::7         1329                       # Per bank write bursts (Count)
system.mem_ctrls.dram.perBankWrBursts::8          814                       # Per bank write bursts (Count)
system.mem_ctrls.dram.perBankWrBursts::9          588                       # Per bank write bursts (Count)
system.mem_ctrls.dram.perBankWrBursts::10          445                       # Per bank write bursts (Count)
system.mem_ctrls.dram.perBankWrBursts::11          648                       # Per bank write bursts (Count)
system.mem_ctrls.dram.perBankWrBursts::12          482                       # Per bank write bursts (Count)
system.mem_ctrls.dram.perBankWrBursts::13          612                       # Per bank write bursts (Count)
system.mem_ctrls.dram.perBankWrBursts::14          447                       # Per bank write bursts (Count)
system.mem_ctrls.dram.perBankWrBursts::15          490                       # Per bank write bursts (Count)
system.mem_ctrls.dram.totQLat             15633805250                       # Total ticks spent queuing (Tick)
system.mem_ctrls.dram.totBusLat           10709270000                       # Total ticks spent in databus transfers (Tick)
system.mem_ctrls.dram.totMemAccLat        55793567750                       # Total ticks spent from burst creation until serviced by the DRAM (Tick)
system.mem_ctrls.dram.avgQLat                 7299.19                       # Average queueing delay per DRAM burst ((Tick/Count))
system.mem_ctrls.dram.avgBusLat               5000.00                       # Average bus latency per DRAM burst ((Tick/Count))
system.mem_ctrls.dram.avgMemAccLat           26049.19                       # Average memory access latency per DRAM burst ((Tick/Count))
system.mem_ctrls.dram.readRowHits             1933627                       # Number of row buffer hits during reads (Count)
system.mem_ctrls.dram.writeRowHits               8577                       # Number of row buffer hits during writes (Count)
system.mem_ctrls.dram.readRowHitRate            90.28                       # Row buffer hit rate for reads (Ratio)
system.mem_ctrls.dram.writeRowHitRate           83.69                       # Row buffer hit rate for writes (Ratio)
system.mem_ctrls.dram.bytesPerActivate::samples       209888                       # Bytes accessed per row activation (Byte)
system.mem_ctrls.dram.bytesPerActivate::mean   656.217106                       # Bytes accessed per row activation (Byte)
system.mem_ctrls.dram.bytesPerActivate::gmean   496.688949                       # Bytes accessed per row activation (Byte)
system.mem_ctrls.dram.bytesPerActivate::stdev   368.012744                       # Bytes accessed per row activation (Byte)
system.mem_ctrls.dram.bytesPerActivate::0-127        20132      9.59%      9.59% # Bytes accessed per row activation (Byte)
system.mem_ctrls.dram.bytesPerActivate::128-255        22139     10.55%     20.14% # Bytes accessed per row activation (Byte)
system.mem_ctrls.dram.bytesPerActivate::256-383        18179      8.66%     28.80% # Bytes accessed per row activation (Byte)
system.mem_ctrls.dram.bytesPerActivate::384-511         1323      0.63%     29.43% # Bytes accessed per row activation (Byte)
system.mem_ctrls.dram.bytesPerActivate::512-639        46911     22.35%     51.78% # Bytes accessed per row activation (Byte)
system.mem_ctrls.dram.bytesPerActivate::640-767         2027      0.97%     52.75% # Bytes accessed per row activation (Byte)
system.mem_ctrls.dram.bytesPerActivate::768-895         2128      1.01%     53.76% # Bytes accessed per row activation (Byte)
system.mem_ctrls.dram.bytesPerActivate::896-1023         2086      0.99%     54.76% # Bytes accessed per row activation (Byte)
system.mem_ctrls.dram.bytesPerActivate::1024-1151        94963     45.24%    100.00% # Bytes accessed per row activation (Byte)
system.mem_ctrls.dram.bytesPerActivate::total       209888                       # Bytes accessed per row activation (Byte)
system.mem_ctrls.dram.bytesRead             137078656                       # Total bytes read (Byte)
system.mem_ctrls.dram.bytesWritten             655936                       # Total bytes written (Byte)
system.mem_ctrls.dram.avgRdBW             2659.261968                       # Average DRAM read bandwidth in MiBytes/s ((Byte/Second))
system.mem_ctrls.dram.avgWrBW               12.724852                       # Average DRAM write bandwidth in MiBytes/s ((Byte/Second))
system.mem_ctrls.dram.peakBW                 12800.00                       # Theoretical peak bandwidth in MiByte/s ((Byte/Second))
system.mem_ctrls.dram.busUtil                   20.87                       # Data bus utilization in percentage (Ratio)
system.mem_ctrls.dram.busUtilRead               20.78                       # Data bus utilization in percentage for reads (Ratio)
system.mem_ctrls.dram.busUtilWrite               0.10                       # Data bus utilization in percentage for writes (Ratio)
system.mem_ctrls.dram.pageHitRate               90.25                       # Row buffer hit rate, read and write combined (Ratio)
system.mem_ctrls.dram.power_state.pwrStateResidencyTicks::UNDEFINED  51547631500                       # Cumulative time (in ticks) in various power states (Tick)
system.mem_ctrls.dram.rank0.actEnergy       830767560                       # Energy for activate commands per rank (pJ) (Joule)
system.mem_ctrls.dram.rank0.preEnergy       441540660                       # Energy for precharge commands per rank (pJ) (Joule)
system.mem_ctrls.dram.rank0.readEnergy     7644283920                       # Energy for read commands per rank (pJ) (Joule)
system.mem_ctrls.dram.rank0.writeEnergy      29874060                       # Energy for write commands per rank (pJ) (Joule)
system.mem_ctrls.dram.rank0.refreshEnergy 4068916800.000000                       # Energy for refresh commands per rank (pJ) (Joule)
system.mem_ctrls.dram.rank0.actBackEnergy  21299762850                       # Energy for active background per rank (pJ) (Joule)
system.mem_ctrls.dram.rank0.preBackEnergy   1857648480                       # Energy for precharge background per rank (pJ) (Joule)
system.mem_ctrls.dram.rank0.actPowerDownEnergy            0                       # Energy for active power-down per rank (pJ) (Joule)
system.mem_ctrls.dram.rank0.prePowerDownEnergy            0                       # Energy for precharge power-down per rank (pJ) (Joule)
system.mem_ctrls.dram.rank0.selfRefreshEnergy            0                       # Energy for self refresh per rank (pJ) (Joule)
system.mem_ctrls.dram.rank0.totalEnergy   36172794330                       # Total energy per rank (pJ) (Joule)
system.mem_ctrls.dram.rank0.averagePower   701.735332                       # Core power per rank (mW) (Watt)
system.mem_ctrls.dram.rank0.totalIdleTime            0                       # Total Idle time Per DRAM Rank (Tick)
system.mem_ctrls.dram.rank0.pwrStateTime::IDLE   4641157000                       # Time in different power states (Tick)
system.mem_ctrls.dram.rank0.pwrStateTime::REF   1721200000                       # Time in different power states (Tick)
system.mem_ctrls.dram.rank0.pwrStateTime::SREF            0                       # Time in different power states (Tick)
system.mem_ctrls.dram.rank0.pwrStateTime::PRE_PDN            0                       # Time in different power states (Tick)
system.mem_ctrls.dram.rank0.pwrStateTime::ACT  45185274500                       # Time in different power states (Tick)
system.mem_ctrls.dram.rank0.pwrStateTime::ACT_PDN            0                       # Time in different power states (Tick)
system.mem_ctrls.dram.rank1.actEnergy       667904160                       # Energy for activate commands per rank (pJ) (Joule)
system.mem_ctrls.dram.rank1.preEnergy       354984300                       # Energy for precharge commands per rank (pJ) (Joule)
system.mem_ctrls.dram.rank1.readEnergy     7648546500                       # Energy for read commands per rank (pJ) (Joule)
system.mem_ctrls.dram.rank1.writeEnergy      23625720                       # Energy for write commands per rank (pJ) (Joule)
system.mem_ctrls.dram.rank1.refreshEnergy 4068916800.000000                       # Energy for refresh commands per rank (pJ) (Joule)
system.mem_ctrls.dram.rank1.actBackEnergy  20344958130                       # Energy for active background per rank (pJ) (Joule)
system.mem_ctrls.dram.rank1.preBackEnergy   2661694560                       # Energy for precharge background per rank (pJ) (Joule)
system.mem_ctrls.dram.rank1.actPowerDownEnergy            0                       # Energy for active power-down per rank (pJ) (Joule)
system.mem_ctrls.dram.rank1.prePowerDownEnergy            0                       # Energy for precharge power-down per rank (pJ) (Joule)
system.mem_ctrls.dram.rank1.selfRefreshEnergy            0                       # Energy for self refresh per rank (pJ) (Joule)
system.mem_ctrls.dram.rank1.totalEnergy   35770630170                       # Total energy per rank (pJ) (Joule)
system.mem_ctrls.dram.rank1.averagePower   693.933535                       # Core power per rank (mW) (Watt)
system.mem_ctrls.dram.rank1.totalIdleTime            0                       # Total Idle time Per DRAM Rank (Tick)
system.mem_ctrls.dram.rank1.pwrStateTime::IDLE   6696799000                       # Time in different power states (Tick)
system.mem_ctrls.dram.rank1.pwrStateTime::REF   1721200000                       # Time in different power states (Tick)
system.mem_ctrls.dram.rank1.pwrStateTime::SREF            0                       # Time in different power states (Tick)
system.mem_ctrls.dram.rank1.pwrStateTime::PRE_PDN            0                       # Time in different power states (Tick)
system.mem_ctrls.dram.rank1.pwrStateTime::ACT  43129632500                       # Time in different power states (Tick)
system.mem_ctrls.dram.rank1.pwrStateTime::ACT_PDN            0                       # Time in different power states (Tick)
system.mem_ctrls.power_state.pwrStateResidencyTicks::UNDEFINED  51547631500                       # Cumulative time (in ticks) in various power states (Tick)
system.membus.transDist::ReadResp             2146938                       # Transaction distribution (Count)
system.membus.transDist::WritebackDirty         29234                       # Transaction distribution (Count)
system.membus.transDist::WritebackClean         12879                       # Transaction distribution (Count)
system.membus.transDist::CleanEvict           2133119                       # Transaction distribution (Count)
system.membus.transDist::ReadExReq              29019                       # Transaction distribution (Count)
system.membus.transDist::ReadExResp             29019                       # Transaction distribution (Count)
system.membus.transDist::ReadCleanReq           13379                       # Transaction distribution (Count)
system.membus.transDist::ReadSharedReq        2133560                       # Transaction distribution (Count)
system.membus.transDist::InvalidateReq             30                       # Transaction distribution (Count)
system.membus.pktCount_system.cpu.icache.mem_side_port::system.mem_ctrls.port        39636                       # Packet count per connected requestor and responder (Count)
system.membus.pktCount_system.cpu.dcache.mem_side_port::system.mem_ctrls.port      6487541                       # Packet count per connected requestor and responder (Count)
system.membus.pktCount::total                 6527177                       # Packet count per connected requestor and responder (Count)
system.membus.pktSize_system.cpu.icache.mem_side_port::system.mem_ctrls.port      1680448                       # Cumulative packet size per connected requestor and responder (Byte)
system.membus.pktSize_system.cpu.dcache.mem_side_port::system.mem_ctrls.port    140276032                       # Cumulative packet size per connected requestor and responder (Byte)
system.membus.pktSize::total                141956480                       # Cumulative packet size per connected requestor and responder (Byte)
system.membus.snoops                                0                       # Total snoops (Count)
system.membus.snoopTraffic                          0                       # Total snoop traffic (Byte)
system.membus.snoopFanout::samples            2175988                       # Request fanout histogram (Count)
system.membus.snoopFanout::mean              0.000001                       # Request fanout histogram (Count)
system.membus.snoopFanout::stdev             0.000959                       # Request fanout histogram (Count)
system.membus.snoopFanout::underflows               0      0.00%      0.00% # Request fanout histogram (Count)
system.membus.snoopFanout::0                  2175986    100.00%    100.00% # Request fanout histogram (Count)
system.membus.snoopFanout::1                        2      0.00%    100.00% # Request fanout histogram (Count)
system.membus.snoopFanout::2                        0      0.00%    100.00% # Request fanout histogram (Count)
system.membus.snoopFanout::overflows                0      0.00%    100.00% # Request fanout histogram (Count)
system.membus.snoopFanout::min_value                0                       # Request fanout histogram (Count)
system.membus.snoopFanout::max_value                1                       # Request fanout histogram (Count)
system.membus.snoopFanout::total              2175988                       # Request fanout histogram (Count)
system.membus.power_state.pwrStateResidencyTicks::UNDEFINED  51547631500                       # Cumulative time (in ticks) in various power states (Tick)
system.membus.reqLayer0.occupancy          5245314500                       # Layer occupancy (ticks) (Tick)
system.membus.reqLayer0.utilization               0.1                       # Layer utilization (Ratio)
system.membus.respLayer1.occupancy           67468999                       # Layer occupancy (ticks) (Tick)
system.membus.respLayer1.utilization              0.0                       # Layer utilization (Ratio)
system.membus.respLayer2.occupancy        11229282750                       # Layer occupancy (ticks) (Tick)
system.membus.respLayer2.utilization              0.2                       # Layer utilization (Ratio)
system.membus.snoop_filter.totRequests        4351220                       # Total number of requests made to the snoop filter. (Count)
system.membus.snoop_filter.hitSingleRequests      2175233                       # Number of requests hitting in the snoop filter with a single holder of the requested data. (Count)
system.membus.snoop_filter.hitMultiRequests            1                       # Number of requests hitting in the snoop filter with multiple (>1) holders of the requested data. (Count)
system.membus.snoop_filter.totSnoops                0                       # Total number of snoops made to the snoop filter. (Count)
system.membus.snoop_filter.hitSingleSnoops            0                       # Number of snoops hitting in the snoop filter with a single holder of the requested data. (Count)
system.membus.snoop_filter.hitMultiSnoops            0                       # Number of snoops hitting in the snoop filter with multiple (>1) holders of the requested data. (Count)
system.voltage_domain.voltage                       1                       # Voltage in Volts (Volt)
system.workload.inst.arm                            0                       # number of arm instructions executed (Count)
system.workload.inst.quiesce                        0                       # number of quiesce instructions executed (Count)

---------- End Simulation Statistics   ----------
