
---------- Begin Simulation Statistics ----------
simSeconds                                   0.059800                       # Number of seconds simulated (Second)
simTicks                                  59800120500                       # Number of ticks simulated (Tick)
finalTick                                 59800120500                       # Number of ticks from beginning of simulation (restored from checkpoints and never reset) (Tick)
simFreq                                  1000000000000                       # The number of ticks per simulated second ((Tick/Second))
hostSeconds                                    229.89                       # Real time elapsed on the host (Second)
hostTickRate                                260123915                       # The number of ticks simulated per host second (ticks/s) ((Tick/Second))
hostMemory                                     680484                       # Number of bytes of host memory used (Byte)
simInsts                                    135353485                       # Number of instructions simulated (Count)
simOps                                      145442116                       # Number of ops (including micro ops) simulated (Count)
hostInstRate                                   588772                       # Simulator instruction rate (inst/s) ((Count/Second))
hostOpRate                                     632657                       # Simulator op (including micro ops) rate (op/s) ((Count/Second))
system.clk_domain.clock                          1000                       # Clock period in ticks (Tick)
system.cpu.numCycles                        119600242                       # Number of cpu cycles simulated (Cycle)
system.cpu.numWorkItemsStarted                      0                       # Number of work items this cpu started (Count)
system.cpu.numWorkItemsCompleted                    0                       # Number of work items this cpu completed (Count)
system.cpu.instsAdded                       154896057                       # Number of instructions added to the IQ (excludes non-spec) (Count)
system.cpu.nonSpecInstsAdded                   196982                       # Number of non-speculative instructions added to the IQ (Count)
system.cpu.instsIssued                      154430047                       # Number of instructions issued (Count)
system.cpu.squashedInstsIssued                 267708                       # Number of squashed instructions issued (Count)
system.cpu.squashedInstsExamined              9650922                       # Number of squashed instructions iterated over during squash; mainly for profiling (Count)
system.cpu.squashedOperandsExamined           7286057                       # Number of squashed operands that are examined and possibly removed from graph (Count)
system.cpu.squashedNonSpecRemoved                 168                       # Number of squashed non-spec instructions that were removed (Count)
system.cpu.numIssuedDist::samples           117883581                       # Number of insts issued each cycle (Count)
system.cpu.numIssuedDist::mean               1.310022                       # Number of insts issued each cycle (Count)
system.cpu.numIssuedDist::stdev              1.801323                       # Number of insts issued each cycle (Count)
system.cpu.numIssuedDist::underflows                0      0.00%      0.00% # Number of insts issued each cycle (Count)
system.cpu.numIssuedDist::0                  60565930     51.38%     51.38% # Number of insts issued each cycle (Count)
system.cpu.numIssuedDist::1                  18240656     15.47%     66.85% # Number of insts issued each cycle (Count)
system.cpu.numIssuedDist::2                  12837615     10.89%     77.74% # Number of insts issued each cycle (Count)
system.cpu.numIssuedDist::3                  10563789      8.96%     86.70% # Number of insts issued each cycle (Count)
system.cpu.numIssuedDist::4                   7476230      6.34%     93.04% # Number of insts issued each cycle (Count)
system.cpu.numIssuedDist::5                   3518855      2.99%     96.03% # Number of insts issued each cycle (Count)
system.cpu.numIssuedDist::6                   2404592      2.04%     98.07% # Number of insts issued each cycle (Count)
system.cpu.numIssuedDist::7                   1311265      1.11%     99.18% # Number of insts issued each cycle (Count)
system.cpu.numIssuedDist::8                    964649      0.82%    100.00% # Number of insts issued each cycle (Count)
system.cpu.numIssuedDist::overflows                 0      0.00%    100.00% # Number of insts issued each cycle (Count)
system.cpu.numIssuedDist::min_value                 0                       # Number of insts issued each cycle (Count)
system.cpu.numIssuedDist::max_value                 8                       # Number of insts issued each cycle (Count)
system.cpu.numIssuedDist::total             117883581                       # Number of insts issued each cycle (Count)
system.cpu.statFuBusy::No_OpClass                   0      0.00%      0.00% # attempts to use FU when none available (Count)
system.cpu.statFuBusy::IntAlu                  325585     10.84%     10.84% # attempts to use FU when none available (Count)
system.cpu.statFuBusy::IntMult                 193882      6.45%     17.29% # attempts to use FU when none available (Count)
system.cpu.statFuBusy::IntDiv                       0      0.00%     17.29% # attempts to use FU when none available (Count)
system.cpu.statFuBusy::FloatAdd                     0      0.00%     17.29% # attempts to use FU when none available (Count)
system.cpu.statFuBusy::FloatCmp                     0      0.00%     17.29% # attempts to use FU when none available (Count)
system.cpu.statFuBusy::FloatCvt                     0      0.00%     17.29% # attempts to use FU when none available (Count)
system.cpu.statFuBusy::FloatMult                    0      0.00%     17.29% # attempts to use FU when none available (Count)
system.cpu.statFuBusy::FloatMultAcc                 0      0.00%     17.29% # attempts to use FU when none available (Count)
system.cpu.statFuBusy::FloatDiv                     0      0.00%     17.29% # attempts to use FU when none available (Count)
system.cpu.statFuBusy::FloatMisc                    0      0.00%     17.29% # attempts to use FU when none available (Count)
system.cpu.statFuBusy::FloatSqrt                    0      0.00%     17.29% # attempts to use FU when none available (Count)
system.cpu.statFuBusy::SimdAdd                      0      0.00%     17.29% # attempts to use FU when none available (Count)
system.cpu.statFuBusy::SimdAddAcc                   0      0.00%     17.29% # attempts to use FU when none available (Count)
system.cpu.statFuBusy::SimdAlu                      1      0.00%     17.29% # attempts to use FU when none available (Count)
system.cpu.statFuBusy::SimdCmp                      7      0.00%     17.29% # attempts to use FU when none available (Count)
system.cpu.statFuBusy::SimdCvt                      0      0.00%     17.29% # attempts to use FU when none available (Count)
system.cpu.statFuBusy::SimdMisc                     0      0.00%     17.29% # attempts to use FU when none available (Count)
system.cpu.statFuBusy::SimdMult                     0      0.00%     17.29% # attempts to use FU when none available (Count)
system.cpu.statFuBusy::SimdMultAcc                  0      0.00%     17.29% # attempts to use FU when none available (Count)
system.cpu.statFuBusy::SimdShift                    0      0.00%     17.29% # attempts to use FU when none available (Count)
system.cpu.statFuBusy::SimdShiftAcc                 0      0.00%     17.29% # attempts to use FU when none available (Count)
system.cpu.statFuBusy::SimdDiv                      0      0.00%     17.29% # attempts to use FU when none available (Count)
system.cpu.statFuBusy::SimdSqrt                     0      0.00%     17.29% # attempts to use FU when none available (Count)
system.cpu.statFuBusy::SimdFloatAdd                 0      0.00%     17.29% # attempts to use FU when none available (Count)
system.cpu.statFuBusy::SimdFloatAlu                 0      0.00%     17.29% # attempts to use FU when none available (Count)
system.cpu.statFuBusy::SimdFloatCmp                 0      0.00%     17.29% # attempts to use FU when none available (Count)
system.cpu.statFuBusy::SimdFloatCvt                 0      0.00%     17.29% # attempts to use FU when none available (Count)
system.cpu.statFuBusy::SimdFloatDiv                 0      0.00%     17.29% # attempts to use FU when none available (Count)
system.cpu.statFuBusy::SimdFloatMisc                0      0.00%     17.29% # attempts to use FU when none available (Count)
system.cpu.statFuBusy::SimdFloatMult                0      0.00%     17.29% # attempts to use FU when none available (Count)
system.cpu.statFuBusy::SimdFloatMultAcc             0      0.00%     17.29% # attempts to use FU when none available (Count)
system.cpu.statFuBusy::SimdFloatSqrt                0      0.00%     17.29% # attempts to use FU when none available (Count)
system.cpu.statFuBusy::SimdReduceAdd                0      0.00%     17.29% # attempts to use FU when none available (Count)
system.cpu.statFuBusy::SimdReduceAlu                0      0.00%     17.29% # attempts to use FU when none available (Count)
system.cpu.statFuBusy::SimdReduceCmp                0      0.00%     17.29% # attempts to use FU when none available (Count)
system.cpu.statFuBusy::SimdFloatReduceAdd            0      0.00%     17.29% # attempts to use FU when none available (Count)
system.cpu.statFuBusy::SimdFloatReduceCmp            0      0.00%     17.29% # attempts to use FU when none available (Count)
system.cpu.statFuBusy::SimdAes                      0      0.00%     17.29% # attempts to use FU when none available (Count)
system.cpu.statFuBusy::SimdAesMix                   0      0.00%     17.29% # attempts to use FU when none available (Count)
system.cpu.statFuBusy::SimdSha1Hash                 0      0.00%     17.29% # attempts to use FU when none available (Count)
system.cpu.statFuBusy::SimdSha1Hash2                0      0.00%     17.29% # attempts to use FU when none available (Count)
system.cpu.statFuBusy::SimdSha256Hash               0      0.00%     17.29% # attempts to use FU when none available (Count)
system.cpu.statFuBusy::SimdSha256Hash2              0      0.00%     17.29% # attempts to use FU when none available (Count)
system.cpu.statFuBusy::SimdShaSigma2                0      0.00%     17.29% # attempts to use FU when none available (Count)
system.cpu.statFuBusy::SimdShaSigma3                0      0.00%     17.29% # attempts to use FU when none available (Count)
system.cpu.statFuBusy::SimdPredAlu                  0      0.00%     17.29% # attempts to use FU when none available (Count)
system.cpu.statFuBusy::MemRead                1296758     43.17%     60.47% # attempts to use FU when none available (Count)
system.cpu.statFuBusy::MemWrite               1187410     39.53%    100.00% # attempts to use FU when none available (Count)
system.cpu.statFuBusy::FloatMemRead                 0      0.00%    100.00% # attempts to use FU when none available (Count)
system.cpu.statFuBusy::FloatMemWrite                0      0.00%    100.00% # attempts to use FU when none available (Count)
system.cpu.statFuBusy::IprAccess                    0      0.00%    100.00% # attempts to use FU when none available (Count)
system.cpu.statFuBusy::InstPrefetch                 0      0.00%    100.00% # attempts to use FU when none available (Count)
system.cpu.statIssuedInstType_0::No_OpClass       131153      0.08%      0.08% # Number of instructions issued per FU type, per thread (Count)
system.cpu.statIssuedInstType_0::IntAlu      92096661     59.64%     59.72% # Number of instructions issued per FU type, per thread (Count)
system.cpu.statIssuedInstType_0::IntMult      1243704      0.81%     60.53% # Number of instructions issued per FU type, per thread (Count)
system.cpu.statIssuedInstType_0::IntDiv        234484      0.15%     60.68% # Number of instructions issued per FU type, per thread (Count)
system.cpu.statIssuedInstType_0::FloatAdd      2100430      1.36%     62.04% # Number of instructions issued per FU type, per thread (Count)
system.cpu.statIssuedInstType_0::FloatCmp        32768      0.02%     62.06% # Number of instructions issued per FU type, per thread (Count)
system.cpu.statIssuedInstType_0::FloatCvt            0      0.00%     62.06% # Number of instructions issued per FU type, per thread (Count)
system.cpu.statIssuedInstType_0::FloatMult      2097153      1.36%     63.42% # Number of instructions issued per FU type, per thread (Count)
system.cpu.statIssuedInstType_0::FloatMultAcc            0      0.00%     63.42% # Number of instructions issued per FU type, per thread (Count)
system.cpu.statIssuedInstType_0::FloatDiv            0      0.00%     63.42% # Number of instructions issued per FU type, per thread (Count)
system.cpu.statIssuedInstType_0::FloatMisc        62213      0.04%     63.46% # Number of instructions issued per FU type, per thread (Count)
system.cpu.statIssuedInstType_0::FloatSqrt            0      0.00%     63.46% # Number of instructions issued per FU type, per thread (Count)
system.cpu.statIssuedInstType_0::SimdAdd        65584      0.04%     63.50% # Number of instructions issued per FU type, per thread (Count)
system.cpu.statIssuedInstType_0::SimdAddAcc            0      0.00%     63.50% # Number of instructions issued per FU type, per thread (Count)
system.cpu.statIssuedInstType_0::SimdAlu       131150      0.08%     63.59% # Number of instructions issued per FU type, per thread (Count)
system.cpu.statIssuedInstType_0::SimdCmp       131140      0.08%     63.67% # Number of instructions issued per FU type, per thread (Count)
system.cpu.statIssuedInstType_0::SimdCvt            0      0.00%     63.67% # Number of instructions issued per FU type, per thread (Count)
system.cpu.statIssuedInstType_0::SimdMisc       127843      0.08%     63.75% # Number of instructions issued per FU type, per thread (Count)
system.cpu.statIssuedInstType_0::SimdMult            0      0.00%     63.75% # Number of instructions issued per FU type, per thread (Count)
system.cpu.statIssuedInstType_0::SimdMultAcc            0      0.00%     63.75% # Number of instructions issued per FU type, per thread (Count)
system.cpu.statIssuedInstType_0::SimdShift            0      0.00%     63.75% # Number of instructions issued per FU type, per thread (Count)
system.cpu.statIssuedInstType_0::SimdShiftAcc            0      0.00%     63.75% # Number of instructions issued per FU type, per thread (Count)
system.cpu.statIssuedInstType_0::SimdDiv            0      0.00%     63.75% # Number of instructions issued per FU type, per thread (Count)
system.cpu.statIssuedInstType_0::SimdSqrt            0      0.00%     63.75% # Number of instructions issued per FU type, per thread (Count)
system.cpu.statIssuedInstType_0::SimdFloatAdd            0      0.00%     63.75% # Number of instructions issued per FU type, per thread (Count)
system.cpu.statIssuedInstType_0::SimdFloatAlu            0      0.00%     63.75% # Number of instructions issued per FU type, per thread (Count)
system.cpu.statIssuedInstType_0::SimdFloatCmp            0      0.00%     63.75% # Number of instructions issued per FU type, per thread (Count)
system.cpu.statIssuedInstType_0::SimdFloatCvt            0      0.00%     63.75% # Number of instructions issued per FU type, per thread (Count)
system.cpu.statIssuedInstType_0::SimdFloatDiv            0      0.00%     63.75% # Number of instructions issued per FU type, per thread (Count)
system.cpu.statIssuedInstType_0::SimdFloatMisc            0      0.00%     63.75% # Number of instructions issued per FU type, per thread (Count)
system.cpu.statIssuedInstType_0::SimdFloatMult            0      0.00%     63.75% # Number of instructions issued per FU type, per thread (Count)
system.cpu.statIssuedInstType_0::SimdFloatMultAcc            0      0.00%     63.75% # Number of instructions issued per FU type, per thread (Count)
system.cpu.statIssuedInstType_0::SimdFloatSqrt            0      0.00%     63.75% # Number of instructions issued per FU type, per thread (Count)
system.cpu.statIssuedInstType_0::SimdReduceAdd            0      0.00%     63.75% # Number of instructions issued per FU type, per thread (Count)
system.cpu.statIssuedInstType_0::SimdReduceAlu            0      0.00%     63.75% # Number of instructions issued per FU type, per thread (Count)
system.cpu.statIssuedInstType_0::SimdReduceCmp            0      0.00%     63.75% # Number of instructions issued per FU type, per thread (Count)
system.cpu.statIssuedInstType_0::SimdFloatReduceAdd            0      0.00%     63.75% # Number of instructions issued per FU type, per thread (Count)
system.cpu.statIssuedInstType_0::SimdFloatReduceCmp            0      0.00%     63.75% # Number of instructions issued per FU type, per thread (Count)
system.cpu.statIssuedInstType_0::SimdAes            0      0.00%     63.75% # Number of instructions issued per FU type, per thread (Count)
system.cpu.statIssuedInstType_0::SimdAesMix            0      0.00%     63.75% # Number of instructions issued per FU type, per thread (Count)
system.cpu.statIssuedInstType_0::SimdSha1Hash            0      0.00%     63.75% # Number of instructions issued per FU type, per thread (Count)
system.cpu.statIssuedInstType_0::SimdSha1Hash2            0      0.00%     63.75% # Number of instructions issued per FU type, per thread (Count)
system.cpu.statIssuedInstType_0::SimdSha256Hash            0      0.00%     63.75% # Number of instructions issued per FU type, per thread (Count)
system.cpu.statIssuedInstType_0::SimdSha256Hash2            0      0.00%     63.75% # Number of instructions issued per FU type, per thread (Count)
system.cpu.statIssuedInstType_0::SimdShaSigma2            0      0.00%     63.75% # Number of instructions issued per FU type, per thread (Count)
system.cpu.statIssuedInstType_0::SimdShaSigma3            0      0.00%     63.75% # Number of instructions issued per FU type, per thread (Count)
system.cpu.statIssuedInstType_0::SimdPredAlu            0      0.00%     63.75% # Number of instructions issued per FU type, per thread (Count)
system.cpu.statIssuedInstType_0::MemRead     37722635     24.43%     88.18% # Number of instructions issued per FU type, per thread (Count)
system.cpu.statIssuedInstType_0::MemWrite     18253129     11.82%    100.00% # Number of instructions issued per FU type, per thread (Count)
system.cpu.statIssuedInstType_0::FloatMemRead            0      0.00%    100.00% # Number of instructions issued per FU type, per thread (Count)
system.cpu.statIssuedInstType_0::FloatMemWrite            0      0.00%    100.00% # Number of instructions issued per FU type, per thread (Count)
system.cpu.statIssuedInstType_0::IprAccess            0      0.00%    100.00% # Number of instructions issued per FU type, per thread (Count)
system.cpu.statIssuedInstType_0::InstPrefetch            0      0.00%    100.00% # Number of instructions issued per FU type, per thread (Count)
system.cpu.statIssuedInstType_0::total      154430047                       # Number of instructions issued per FU type, per thread (Count)
system.cpu.issueRate                         1.291219                       # Inst issue rate ((Count/Cycle))
system.cpu.fuBusy                             3003643                       # FU busy when requested (Count)
system.cpu.fuBusyRate                        0.019450                       # FU busy rate (busy events/executed inst) ((Count/Count))
system.cpu.intInstQueueReads                399827260                       # Number of integer instruction queue reads (Count)
system.cpu.intInstQueueWrites               148679779                       # Number of integer instruction queue writes (Count)
system.cpu.intInstQueueWakeupAccesses       136835147                       # Number of integer instruction queue wakeup accesses (Count)
system.cpu.fpInstQueueReads                         0                       # Number of floating instruction queue reads (Count)
system.cpu.fpInstQueueWrites                        0                       # Number of floating instruction queue writes (Count)
system.cpu.fpInstQueueWakeupAccesses                0                       # Number of floating instruction queue wakeup accesses (Count)
system.cpu.vecInstQueueReads                 30187766                       # Number of vector instruction queue reads (Count)
system.cpu.vecInstQueueWrites                16145906                       # Number of vector instruction queue writes (Count)
system.cpu.vecInstQueueWakeupAccesses        14547353                       # Number of vector instruction queue wakeup accesses (Count)
system.cpu.intAluAccesses                   142160089                       # Number of integer alu accesses (Count)
system.cpu.fpAluAccesses                            0                       # Number of floating point alu accesses (Count)
system.cpu.vecAluAccesses                    15142448                       # Number of vector alu accesses (Count)
system.cpu.numInsts                         153684630                       # Number of executed instructions (Count)
system.cpu.numLoadInsts                      37531399                       # Number of load instructions executed (Count)
system.cpu.numSquashedInsts                    745417                       # Number of squashed instructions skipped in execute (Count)
system.cpu.numSwp                                   0                       # Number of swp insts executed (Count)
system.cpu.numNop                              119848                       # Number of nop insts executed (Count)
system.cpu.numRefs                           55533731                       # Number of memory reference insts executed (Count)
system.cpu.numBranches                       20851446                       # Number of branches executed (Count)
system.cpu.numStoreInsts                     18002332                       # Number of stores executed (Count)
system.cpu.numRate                           1.284986                       # Inst execution rate ((Count/Cycle))
system.cpu.timesIdled                           95744                       # Number of times that the entire CPU went into an idle state and unscheduled itself (Count)
system.cpu.idleCycles                         1716661                       # Total number of cycles that the CPU has spent unscheduled due to idling (Cycle)
system.cpu.committedInsts                   135353485                       # Number of Instructions Simulated (Count)
system.cpu.committedOps                     145442116                       # Number of Ops (including micro ops) Simulated (Count)
system.cpu.cpi                               0.883614                       # CPI: Cycles Per Instruction ((Cycle/Count))
system.cpu.totalCpi                          0.883614                       # CPI: Total CPI of All Threads ((Cycle/Count))
system.cpu.ipc                               1.131716                       # IPC: Instructions Per Cycle ((Count/Cycle))
system.cpu.totalIpc                          1.131716                       # IPC: Total IPC of All Threads ((Count/Cycle))
system.cpu.intRegfileReads                  174924198                       # Number of integer regfile reads (Count)
system.cpu.intRegfileWrites                 105320515                       # Number of integer regfile writes (Count)
system.cpu.vecRegfileReads                   12557943                       # number of vector regfile reads (Count)
system.cpu.vecRegfileWrites                  11197065                       # number of vector regfile writes (Count)
system.cpu.ccRegfileReads                    36273141                       # number of cc regfile reads (Count)
system.cpu.ccRegfileWrites                   35981381                       # number of cc regfile writes (Count)
system.cpu.miscRegfileReads                 324741343                       # number of misc regfile reads (Count)
system.cpu.miscRegfileWrites                  4443489                       # number of misc regfile writes (Count)
system.cpu.MemDepUnit__0.insertedLoads       36115494                       # Number of loads inserted to the mem dependence unit. (Count)
system.cpu.MemDepUnit__0.insertedStores      19028483                       # Number of stores inserted to the mem dependence unit. (Count)
system.cpu.MemDepUnit__0.conflictingLoads     10853355                       # Number of conflicting loads. (Count)
system.cpu.MemDepUnit__0.conflictingStores      4225912                       # Number of conflicting stores. (Count)
system.cpu.MemDepUnit__1.insertedLoads              0                       # Number of loads inserted to the mem dependence unit. (Count)
system.cpu.MemDepUnit__1.insertedStores             0                       # Number of stores inserted to the mem dependence unit. (Count)
system.cpu.MemDepUnit__1.conflictingLoads            0                       # Number of conflicting loads. (Count)
system.cpu.MemDepUnit__1.conflictingStores            0                       # Number of conflicting stores. (Count)
system.cpu.MemDepUnit__2.insertedLoads              0                       # Number of loads inserted to the mem dependence unit. (Count)
system.cpu.MemDepUnit__2.insertedStores             0                       # Number of stores inserted to the mem dependence unit. (Count)
system.cpu.MemDepUnit__2.conflictingLoads            0                       # Number of conflicting loads. (Count)
system.cpu.MemDepUnit__2.conflictingStores            0                       # Number of conflicting stores. (Count)
system.cpu.MemDepUnit__3.insertedLoads              0                       # Number of loads inserted to the mem dependence unit. (Count)
system.cpu.MemDepUnit__3.insertedStores             0                       # Number of stores inserted to the mem dependence unit. (Count)
system.cpu.MemDepUnit__3.conflictingLoads            0                       # Number of conflicting loads. (Count)
system.cpu.MemDepUnit__3.conflictingStores            0                       # Number of conflicting stores. (Count)
system.cpu.branchPred.lookups                22275218                       # Number of BP lookups (Count)
system.cpu.branchPred.condPredicted          15485665                       # Number of conditional branches predicted (Count)
system.cpu.branchPred.condIncorrect            228385                       # Number of conditional branches incorrect (Count)
system.cpu.branchPred.BTBLookups             10997000                       # Number of BTB lookups (Count)
system.cpu.branchPred.BTBHits                10947500                       # Number of BTB hits (Count)
system.cpu.branchPred.BTBHitRatio            0.995499                       # BTB Hit Ratio (Ratio)
system.cpu.branchPred.RASUsed                 1228177                       # Number of times the RAS was used to get a target. (Count)
system.cpu.branchPred.RASIncorrect                 28                       # Number of incorrect RAS predictions. (Count)
system.cpu.branchPred.indirectLookups          248528                       # Number of indirect predictor lookups. (Count)
system.cpu.branchPred.indirectHits             239985                       # Number of indirect target hits. (Count)
system.cpu.branchPred.indirectMisses             8543                       # Number of indirect misses. (Count)
system.cpu.branchPred.indirectMispredicted          205                       # Number of mispredicted indirect branches. (Count)
system.cpu.commit.commitSquashedInsts         9668869                       # The number of squashed insts skipped by commit (Count)
system.cpu.commit.commitNonSpecStalls          196814                       # The number of times commit has been forced to stall to communicate backwards (Count)
system.cpu.commit.branchMispredicts            214992                       # The number of times a branch was mispredicted (Count)
system.cpu.commit.numCommittedDist::samples    116546919                       # Number of insts commited each cycle (Count)
system.cpu.commit.numCommittedDist::mean     1.248866                       # Number of insts commited each cycle (Count)
system.cpu.commit.numCommittedDist::stdev     2.507849                       # Number of insts commited each cycle (Count)
system.cpu.commit.numCommittedDist::underflows            0      0.00%      0.00% # Number of insts commited each cycle (Count)
system.cpu.commit.numCommittedDist::0        80787464     69.32%     69.32% # Number of insts commited each cycle (Count)
system.cpu.commit.numCommittedDist::1        11654355     10.00%     79.32% # Number of insts commited each cycle (Count)
system.cpu.commit.numCommittedDist::2         5895684      5.06%     84.38% # Number of insts commited each cycle (Count)
system.cpu.commit.numCommittedDist::3         2357484      2.02%     86.40% # Number of insts commited each cycle (Count)
system.cpu.commit.numCommittedDist::4          966620      0.83%     87.23% # Number of insts commited each cycle (Count)
system.cpu.commit.numCommittedDist::5          649928      0.56%     87.79% # Number of insts commited each cycle (Count)
system.cpu.commit.numCommittedDist::6         2514408      2.16%     89.94% # Number of insts commited each cycle (Count)
system.cpu.commit.numCommittedDist::7          937074      0.80%     90.75% # Number of insts commited each cycle (Count)
system.cpu.commit.numCommittedDist::8        10783902      9.25%    100.00% # Number of insts commited each cycle (Count)
system.cpu.commit.numCommittedDist::overflows            0      0.00%    100.00% # Number of insts commited each cycle (Count)
system.cpu.commit.numCommittedDist::min_value            0                       # Number of insts commited each cycle (Count)
system.cpu.commit.numCommittedDist::max_value            8                       # Number of insts commited each cycle (Count)
system.cpu.commit.numCommittedDist::total    116546919                       # Number of insts commited each cycle (Count)
system.cpu.commit.instsCommitted            135462846                       # Number of instructions committed (Count)
system.cpu.commit.opsCommitted              145551477                       # Number of ops (including micro ops) committed (Count)
system.cpu.commit.memRefs                    51205526                       # Number of memory references committed (Count)
system.cpu.commit.loads                      34477360                       # Number of loads committed (Count)
system.cpu.commit.amos                          98358                       # Number of atomic instructions committed (Count)
system.cpu.commit.membars                       98368                       # Number of memory barriers committed (Count)
system.cpu.commit.branches                   20164994                       # Number of branches committed (Count)
system.cpu.commit.vectorInstructions         14149424                       # Number of committed Vector instructions. (Count)
system.cpu.commit.floating                          0                       # Number of committed floating point instructions. (Count)
system.cpu.commit.integer                   127338888                       # Number of committed integer instructions. (Count)
system.cpu.commit.functionCalls               1144529                       # Number of function calls committed. (Count)
system.cpu.commit.committedInstType_0::No_OpClass       131141      0.09%      0.09% # Class of committed instruction (Count)
system.cpu.commit.committedInstType_0::IntAlu     87992355     60.45%     60.54% # Class of committed instruction (Count)
system.cpu.commit.committedInstType_0::IntMult      1243296      0.85%     61.40% # Class of committed instruction (Count)
system.cpu.commit.committedInstType_0::IntDiv       234270      0.16%     61.56% # Class of committed instruction (Count)
system.cpu.commit.committedInstType_0::FloatAdd      2100428      1.44%     63.00% # Class of committed instruction (Count)
system.cpu.commit.committedInstType_0::FloatCmp        32768      0.02%     63.03% # Class of committed instruction (Count)
system.cpu.commit.committedInstType_0::FloatCvt            0      0.00%     63.03% # Class of committed instruction (Count)
system.cpu.commit.committedInstType_0::FloatMult      2097152      1.44%     64.47% # Class of committed instruction (Count)
system.cpu.commit.committedInstType_0::FloatMultAcc            0      0.00%     64.47% # Class of committed instruction (Count)
system.cpu.commit.committedInstType_0::FloatDiv            0      0.00%     64.47% # Class of committed instruction (Count)
system.cpu.commit.committedInstType_0::FloatMisc        58980      0.04%     64.51% # Class of committed instruction (Count)
system.cpu.commit.committedInstType_0::FloatSqrt            0      0.00%     64.51% # Class of committed instruction (Count)
system.cpu.commit.committedInstType_0::SimdAdd        65556      0.05%     64.55% # Class of committed instruction (Count)
system.cpu.commit.committedInstType_0::SimdAddAcc            0      0.00%     64.55% # Class of committed instruction (Count)
system.cpu.commit.committedInstType_0::SimdAlu       131098      0.09%     64.64% # Class of committed instruction (Count)
system.cpu.commit.committedInstType_0::SimdCmp       131092      0.09%     64.73% # Class of committed instruction (Count)
system.cpu.commit.committedInstType_0::SimdCvt            0      0.00%     64.73% # Class of committed instruction (Count)
system.cpu.commit.committedInstType_0::SimdMisc       127815      0.09%     64.82% # Class of committed instruction (Count)
system.cpu.commit.committedInstType_0::SimdMult            0      0.00%     64.82% # Class of committed instruction (Count)
system.cpu.commit.committedInstType_0::SimdMultAcc            0      0.00%     64.82% # Class of committed instruction (Count)
system.cpu.commit.committedInstType_0::SimdShift            0      0.00%     64.82% # Class of committed instruction (Count)
system.cpu.commit.committedInstType_0::SimdShiftAcc            0      0.00%     64.82% # Class of committed instruction (Count)
system.cpu.commit.committedInstType_0::SimdDiv            0      0.00%     64.82% # Class of committed instruction (Count)
system.cpu.commit.committedInstType_0::SimdSqrt            0      0.00%     64.82% # Class of committed instruction (Count)
system.cpu.commit.committedInstType_0::SimdFloatAdd            0      0.00%     64.82% # Class of committed instruction (Count)
system.cpu.commit.committedInstType_0::SimdFloatAlu            0      0.00%     64.82% # Class of committed instruction (Count)
system.cpu.commit.committedInstType_0::SimdFloatCmp            0      0.00%     64.82% # Class of committed instruction (Count)
system.cpu.commit.committedInstType_0::SimdFloatCvt            0      0.00%     64.82% # Class of committed instruction (Count)
system.cpu.commit.committedInstType_0::SimdFloatDiv            0      0.00%     64.82% # Class of committed instruction (Count)
system.cpu.commit.committedInstType_0::SimdFloatMisc            0      0.00%     64.82% # Class of committed instruction (Count)
system.cpu.commit.committedInstType_0::SimdFloatMult            0      0.00%     64.82% # Class of committed instruction (Count)
system.cpu.commit.committedInstType_0::SimdFloatMultAcc            0      0.00%     64.82% # Class of committed instruction (Count)
system.cpu.commit.committedInstType_0::SimdFloatSqrt            0      0.00%     64.82% # Class of committed instruction (Count)
system.cpu.commit.committedInstType_0::SimdReduceAdd            0      0.00%     64.82% # Class of committed instruction (Count)
system.cpu.commit.committedInstType_0::SimdReduceAlu            0      0.00%     64.82% # Class of committed instruction (Count)
system.cpu.commit.committedInstType_0::SimdReduceCmp            0      0.00%     64.82% # Class of committed instruction (Count)
system.cpu.commit.committedInstType_0::SimdFloatReduceAdd            0      0.00%     64.82% # Class of committed instruction (Count)
system.cpu.commit.committedInstType_0::SimdFloatReduceCmp            0      0.00%     64.82% # Class of committed instruction (Count)
system.cpu.commit.committedInstType_0::SimdAes            0      0.00%     64.82% # Class of committed instruction (Count)
system.cpu.commit.committedInstType_0::SimdAesMix            0      0.00%     64.82% # Class of committed instruction (Count)
system.cpu.commit.committedInstType_0::SimdSha1Hash            0      0.00%     64.82% # Class of committed instruction (Count)
system.cpu.commit.committedInstType_0::SimdSha1Hash2            0      0.00%     64.82% # Class of committed instruction (Count)
system.cpu.commit.committedInstType_0::SimdSha256Hash            0      0.00%     64.82% # Class of committed instruction (Count)
system.cpu.commit.committedInstType_0::SimdSha256Hash2            0      0.00%     64.82% # Class of committed instruction (Count)
system.cpu.commit.committedInstType_0::SimdShaSigma2            0      0.00%     64.82% # Class of committed instruction (Count)
system.cpu.commit.committedInstType_0::SimdShaSigma3            0      0.00%     64.82% # Class of committed instruction (Count)
system.cpu.commit.committedInstType_0::SimdPredAlu            0      0.00%     64.82% # Class of committed instruction (Count)
system.cpu.commit.committedInstType_0::MemRead     34477360     23.69%     88.51% # Class of committed instruction (Count)
system.cpu.commit.committedInstType_0::MemWrite     16728166     11.49%    100.00% # Class of committed instruction (Count)
system.cpu.commit.committedInstType_0::FloatMemRead            0      0.00%    100.00% # Class of committed instruction (Count)
system.cpu.commit.committedInstType_0::FloatMemWrite            0      0.00%    100.00% # Class of committed instruction (Count)
system.cpu.commit.committedInstType_0::IprAccess            0      0.00%    100.00% # Class of committed instruction (Count)
system.cpu.commit.committedInstType_0::InstPrefetch            0      0.00%    100.00% # Class of committed instruction (Count)
system.cpu.commit.committedInstType_0::total    145551477                       # Class of committed instruction (Count)
system.cpu.commit.commitEligibleSamples      10783902                       # number cycles where commit BW limit reached (Cycle)
system.cpu.dcache.demandHits::cpu.data       37457303                       # number of demand (read+write) hits (Count)
system.cpu.dcache.demandHits::total          37457303                       # number of demand (read+write) hits (Count)
system.cpu.dcache.overallHits::cpu.data      37534019                       # number of overall hits (Count)
system.cpu.dcache.overallHits::total         37534019                       # number of overall hits (Count)
system.cpu.dcache.demandMisses::cpu.data      2290344                       # number of demand (read+write) misses (Count)
system.cpu.dcache.demandMisses::total         2290344                       # number of demand (read+write) misses (Count)
system.cpu.dcache.overallMisses::cpu.data      2290395                       # number of overall misses (Count)
system.cpu.dcache.overallMisses::total        2290395                       # number of overall misses (Count)
system.cpu.dcache.demandMissLatency::cpu.data 130982513095                       # number of demand (read+write) miss ticks (Tick)
system.cpu.dcache.demandMissLatency::total 130982513095                       # number of demand (read+write) miss ticks (Tick)
system.cpu.dcache.overallMissLatency::cpu.data 130982513095                       # number of overall miss ticks (Tick)
system.cpu.dcache.overallMissLatency::total 130982513095                       # number of overall miss ticks (Tick)
system.cpu.dcache.demandAccesses::cpu.data     39747647                       # number of demand (read+write) accesses (Count)
system.cpu.dcache.demandAccesses::total      39747647                       # number of demand (read+write) accesses (Count)
system.cpu.dcache.overallAccesses::cpu.data     39824414                       # number of overall (read+write) accesses (Count)
system.cpu.dcache.overallAccesses::total     39824414                       # number of overall (read+write) accesses (Count)
system.cpu.dcache.demandMissRate::cpu.data     0.057622                       # miss rate for demand accesses (Ratio)
system.cpu.dcache.demandMissRate::total      0.057622                       # miss rate for demand accesses (Ratio)
system.cpu.dcache.overallMissRate::cpu.data     0.057512                       # miss rate for overall accesses (Ratio)
system.cpu.dcache.overallMissRate::total     0.057512                       # miss rate for overall accesses (Ratio)
system.cpu.dcache.demandAvgMissLatency::cpu.data 57189.013133                       # average overall miss latency ((Cycle/Count))
system.cpu.dcache.demandAvgMissLatency::total 57189.013133                       # average overall miss latency ((Cycle/Count))
system.cpu.dcache.overallAvgMissLatency::cpu.data 57187.739711                       # average overall miss latency ((Cycle/Count))
system.cpu.dcache.overallAvgMissLatency::total 57187.739711                       # average overall miss latency ((Cycle/Count))
system.cpu.dcache.blockedCycles::no_mshrs     40183699                       # number of cycles access was blocked (Cycle)
system.cpu.dcache.blockedCycles::no_targets            0                       # number of cycles access was blocked (Cycle)
system.cpu.dcache.blockedCauses::no_mshrs       819690                       # number of times access was blocked (Count)
system.cpu.dcache.blockedCauses::no_targets            0                       # number of times access was blocked (Count)
system.cpu.dcache.avgBlocked::no_mshrs      49.023044                       # average number of cycles each access was blocked ((Cycle/Count))
system.cpu.dcache.avgBlocked::no_targets          nan                       # average number of cycles each access was blocked ((Cycle/Count))
system.cpu.dcache.writebacks::writebacks        37659                       # number of writebacks (Count)
system.cpu.dcache.writebacks::total             37659                       # number of writebacks (Count)
system.cpu.dcache.demandMshrHits::cpu.data        99843                       # number of demand (read+write) MSHR hits (Count)
system.cpu.dcache.demandMshrHits::total         99843                       # number of demand (read+write) MSHR hits (Count)
system.cpu.dcache.overallMshrHits::cpu.data        99843                       # number of overall MSHR hits (Count)
system.cpu.dcache.overallMshrHits::total        99843                       # number of overall MSHR hits (Count)
system.cpu.dcache.demandMshrMisses::cpu.data      2190501                       # number of demand (read+write) MSHR misses (Count)
system.cpu.dcache.demandMshrMisses::total      2190501                       # number of demand (read+write) MSHR misses (Count)
system.cpu.dcache.overallMshrMisses::cpu.data      2190552                       # number of overall MSHR misses (Count)
system.cpu.dcache.overallMshrMisses::total      2190552                       # number of overall MSHR misses (Count)
system.cpu.dcache.demandMshrMissLatency::cpu.data 125470043643                       # number of demand (read+write) MSHR miss ticks (Tick)
system.cpu.dcache.demandMshrMissLatency::total 125470043643                       # number of demand (read+write) MSHR miss ticks (Tick)
system.cpu.dcache.overallMshrMissLatency::cpu.data 125472796643                       # number of overall MSHR miss ticks (Tick)
system.cpu.dcache.overallMshrMissLatency::total 125472796643                       # number of overall MSHR miss ticks (Tick)
system.cpu.dcache.demandMshrMissRate::cpu.data     0.055110                       # mshr miss ratio for demand accesses (Ratio)
system.cpu.dcache.demandMshrMissRate::total     0.055110                       # mshr miss ratio for demand accesses (Ratio)
system.cpu.dcache.overallMshrMissRate::cpu.data     0.055005                       # mshr miss ratio for overall accesses (Ratio)
system.cpu.dcache.overallMshrMissRate::total     0.055005                       # mshr miss ratio for overall accesses (Ratio)
system.cpu.dcache.demandAvgMshrMissLatency::cpu.data 57279.153784                       # average overall mshr miss latency ((Cycle/Count))
system.cpu.dcache.demandAvgMshrMissLatency::total 57279.153784                       # average overall mshr miss latency ((Cycle/Count))
system.cpu.dcache.overallAvgMshrMissLatency::cpu.data 57279.076983                       # average overall mshr miss latency ((Cycle/Count))
system.cpu.dcache.overallAvgMshrMissLatency::total 57279.076983                       # average overall mshr miss latency ((Cycle/Count))
system.cpu.dcache.replacements                2190044                       # number of replacements (Count)
system.cpu.dcache.LoadLockedReq.hits::cpu.data           34                       # number of LoadLockedReq hits (Count)
system.cpu.dcache.LoadLockedReq.hits::total           34                       # number of LoadLockedReq hits (Count)
system.cpu.dcache.LoadLockedReq.misses::cpu.data            6                       # number of LoadLockedReq misses (Count)
system.cpu.dcache.LoadLockedReq.misses::total            6                       # number of LoadLockedReq misses (Count)
system.cpu.dcache.LoadLockedReq.missLatency::cpu.data       473500                       # number of LoadLockedReq miss ticks (Tick)
system.cpu.dcache.LoadLockedReq.missLatency::total       473500                       # number of LoadLockedReq miss ticks (Tick)
system.cpu.dcache.LoadLockedReq.accesses::cpu.data           40                       # number of LoadLockedReq accesses(hits+misses) (Count)
system.cpu.dcache.LoadLockedReq.accesses::total           40                       # number of LoadLockedReq accesses(hits+misses) (Count)
system.cpu.dcache.LoadLockedReq.missRate::cpu.data     0.150000                       # miss rate for LoadLockedReq accesses (Ratio)
system.cpu.dcache.LoadLockedReq.missRate::total     0.150000                       # miss rate for LoadLockedReq accesses (Ratio)
system.cpu.dcache.LoadLockedReq.avgMissLatency::cpu.data 78916.666667                       # average LoadLockedReq miss latency ((Tick/Count))
system.cpu.dcache.LoadLockedReq.avgMissLatency::total 78916.666667                       # average LoadLockedReq miss latency ((Tick/Count))
system.cpu.dcache.LoadLockedReq.mshrHits::cpu.data            2                       # number of LoadLockedReq MSHR hits (Count)
system.cpu.dcache.LoadLockedReq.mshrHits::total            2                       # number of LoadLockedReq MSHR hits (Count)
system.cpu.dcache.LoadLockedReq.mshrMisses::cpu.data            4                       # number of LoadLockedReq MSHR misses (Count)
system.cpu.dcache.LoadLockedReq.mshrMisses::total            4                       # number of LoadLockedReq MSHR misses (Count)
system.cpu.dcache.LoadLockedReq.mshrMissLatency::cpu.data       385500                       # number of LoadLockedReq MSHR miss ticks (Tick)
system.cpu.dcache.LoadLockedReq.mshrMissLatency::total       385500                       # number of LoadLockedReq MSHR miss ticks (Tick)
system.cpu.dcache.LoadLockedReq.mshrMissRate::cpu.data     0.100000                       # mshr miss rate for LoadLockedReq accesses (Ratio)
system.cpu.dcache.LoadLockedReq.mshrMissRate::total     0.100000                       # mshr miss rate for LoadLockedReq accesses (Ratio)
system.cpu.dcache.LoadLockedReq.avgMshrMissLatency::cpu.data        96375                       # average LoadLockedReq mshr miss latency ((Tick/Count))
system.cpu.dcache.LoadLockedReq.avgMshrMissLatency::total        96375                       # average LoadLockedReq mshr miss latency ((Tick/Count))
system.cpu.dcache.ReadReq.hits::cpu.data     20891269                       # number of ReadReq hits (Count)
system.cpu.dcache.ReadReq.hits::total        20891269                       # number of ReadReq hits (Count)
system.cpu.dcache.ReadReq.misses::cpu.data      2226572                       # number of ReadReq misses (Count)
system.cpu.dcache.ReadReq.misses::total       2226572                       # number of ReadReq misses (Count)
system.cpu.dcache.ReadReq.missLatency::cpu.data 129103701500                       # number of ReadReq miss ticks (Tick)
system.cpu.dcache.ReadReq.missLatency::total 129103701500                       # number of ReadReq miss ticks (Tick)
system.cpu.dcache.ReadReq.accesses::cpu.data     23117841                       # number of ReadReq accesses(hits+misses) (Count)
system.cpu.dcache.ReadReq.accesses::total     23117841                       # number of ReadReq accesses(hits+misses) (Count)
system.cpu.dcache.ReadReq.missRate::cpu.data     0.096314                       # miss rate for ReadReq accesses (Ratio)
system.cpu.dcache.ReadReq.missRate::total     0.096314                       # miss rate for ReadReq accesses (Ratio)
system.cpu.dcache.ReadReq.avgMissLatency::cpu.data 57983.169419                       # average ReadReq miss latency ((Tick/Count))
system.cpu.dcache.ReadReq.avgMissLatency::total 57983.169419                       # average ReadReq miss latency ((Tick/Count))
system.cpu.dcache.ReadReq.mshrHits::cpu.data        73818                       # number of ReadReq MSHR hits (Count)
system.cpu.dcache.ReadReq.mshrHits::total        73818                       # number of ReadReq MSHR hits (Count)
system.cpu.dcache.ReadReq.mshrMisses::cpu.data      2152754                       # number of ReadReq MSHR misses (Count)
system.cpu.dcache.ReadReq.mshrMisses::total      2152754                       # number of ReadReq MSHR misses (Count)
system.cpu.dcache.ReadReq.mshrMissLatency::cpu.data 124362649000                       # number of ReadReq MSHR miss ticks (Tick)
system.cpu.dcache.ReadReq.mshrMissLatency::total 124362649000                       # number of ReadReq MSHR miss ticks (Tick)
system.cpu.dcache.ReadReq.mshrMissRate::cpu.data     0.093121                       # mshr miss rate for ReadReq accesses (Ratio)
system.cpu.dcache.ReadReq.mshrMissRate::total     0.093121                       # mshr miss rate for ReadReq accesses (Ratio)
system.cpu.dcache.ReadReq.avgMshrMissLatency::cpu.data 57769.094379                       # average ReadReq mshr miss latency ((Tick/Count))
system.cpu.dcache.ReadReq.avgMshrMissLatency::total 57769.094379                       # average ReadReq mshr miss latency ((Tick/Count))
system.cpu.dcache.SoftPFReq.hits::cpu.data        76716                       # number of SoftPFReq hits (Count)
system.cpu.dcache.SoftPFReq.hits::total         76716                       # number of SoftPFReq hits (Count)
system.cpu.dcache.SoftPFReq.misses::cpu.data           51                       # number of SoftPFReq misses (Count)
system.cpu.dcache.SoftPFReq.misses::total           51                       # number of SoftPFReq misses (Count)
system.cpu.dcache.SoftPFReq.accesses::cpu.data        76767                       # number of SoftPFReq accesses(hits+misses) (Count)
system.cpu.dcache.SoftPFReq.accesses::total        76767                       # number of SoftPFReq accesses(hits+misses) (Count)
system.cpu.dcache.SoftPFReq.missRate::cpu.data     0.000664                       # miss rate for SoftPFReq accesses (Ratio)
system.cpu.dcache.SoftPFReq.missRate::total     0.000664                       # miss rate for SoftPFReq accesses (Ratio)
system.cpu.dcache.SoftPFReq.mshrMisses::cpu.data           51                       # number of SoftPFReq MSHR misses (Count)
system.cpu.dcache.SoftPFReq.mshrMisses::total           51                       # number of SoftPFReq MSHR misses (Count)
system.cpu.dcache.SoftPFReq.mshrMissLatency::cpu.data      2753000                       # number of SoftPFReq MSHR miss ticks (Tick)
system.cpu.dcache.SoftPFReq.mshrMissLatency::total      2753000                       # number of SoftPFReq MSHR miss ticks (Tick)
system.cpu.dcache.SoftPFReq.mshrMissRate::cpu.data     0.000664                       # mshr miss rate for SoftPFReq accesses (Ratio)
system.cpu.dcache.SoftPFReq.mshrMissRate::total     0.000664                       # mshr miss rate for SoftPFReq accesses (Ratio)
system.cpu.dcache.SoftPFReq.avgMshrMissLatency::cpu.data 53980.392157                       # average SoftPFReq mshr miss latency ((Tick/Count))
system.cpu.dcache.SoftPFReq.avgMshrMissLatency::total 53980.392157                       # average SoftPFReq mshr miss latency ((Tick/Count))
system.cpu.dcache.StoreCondReq.hits::cpu.data           10                       # number of StoreCondReq hits (Count)
system.cpu.dcache.StoreCondReq.hits::total           10                       # number of StoreCondReq hits (Count)
system.cpu.dcache.StoreCondReq.accesses::cpu.data           10                       # number of StoreCondReq accesses(hits+misses) (Count)
system.cpu.dcache.StoreCondReq.accesses::total           10                       # number of StoreCondReq accesses(hits+misses) (Count)
system.cpu.dcache.SwapReq.hits::cpu.data        98357                       # number of SwapReq hits (Count)
system.cpu.dcache.SwapReq.hits::total           98357                       # number of SwapReq hits (Count)
system.cpu.dcache.SwapReq.misses::cpu.data            1                       # number of SwapReq misses (Count)
system.cpu.dcache.SwapReq.misses::total             1                       # number of SwapReq misses (Count)
system.cpu.dcache.SwapReq.missLatency::cpu.data        72000                       # number of SwapReq miss ticks (Tick)
system.cpu.dcache.SwapReq.missLatency::total        72000                       # number of SwapReq miss ticks (Tick)
system.cpu.dcache.SwapReq.accesses::cpu.data        98358                       # number of SwapReq accesses(hits+misses) (Count)
system.cpu.dcache.SwapReq.accesses::total        98358                       # number of SwapReq accesses(hits+misses) (Count)
system.cpu.dcache.SwapReq.missRate::cpu.data     0.000010                       # miss rate for SwapReq accesses (Ratio)
system.cpu.dcache.SwapReq.missRate::total     0.000010                       # miss rate for SwapReq accesses (Ratio)
system.cpu.dcache.SwapReq.avgMissLatency::cpu.data        72000                       # average SwapReq miss latency ((Tick/Count))
system.cpu.dcache.SwapReq.avgMissLatency::total        72000                       # average SwapReq miss latency ((Tick/Count))
system.cpu.dcache.SwapReq.mshrHits::cpu.data            1                       # number of SwapReq MSHR hits (Count)
system.cpu.dcache.SwapReq.mshrHits::total            1                       # number of SwapReq MSHR hits (Count)
system.cpu.dcache.WriteLineReq.misses::cpu.data            9                       # number of WriteLineReq misses (Count)
system.cpu.dcache.WriteLineReq.misses::total            9                       # number of WriteLineReq misses (Count)
system.cpu.dcache.WriteLineReq.missLatency::cpu.data        96998                       # number of WriteLineReq miss ticks (Tick)
system.cpu.dcache.WriteLineReq.missLatency::total        96998                       # number of WriteLineReq miss ticks (Tick)
system.cpu.dcache.WriteLineReq.accesses::cpu.data            9                       # number of WriteLineReq accesses(hits+misses) (Count)
system.cpu.dcache.WriteLineReq.accesses::total            9                       # number of WriteLineReq accesses(hits+misses) (Count)
system.cpu.dcache.WriteLineReq.missRate::cpu.data            1                       # miss rate for WriteLineReq accesses (Ratio)
system.cpu.dcache.WriteLineReq.missRate::total            1                       # miss rate for WriteLineReq accesses (Ratio)
system.cpu.dcache.WriteLineReq.avgMissLatency::cpu.data 10777.555556                       # average WriteLineReq miss latency ((Tick/Count))
system.cpu.dcache.WriteLineReq.avgMissLatency::total 10777.555556                       # average WriteLineReq miss latency ((Tick/Count))
system.cpu.dcache.WriteLineReq.mshrMisses::cpu.data            9                       # number of WriteLineReq MSHR misses (Count)
system.cpu.dcache.WriteLineReq.mshrMisses::total            9                       # number of WriteLineReq MSHR misses (Count)
system.cpu.dcache.WriteLineReq.mshrMissLatency::cpu.data        87998                       # number of WriteLineReq MSHR miss ticks (Tick)
system.cpu.dcache.WriteLineReq.mshrMissLatency::total        87998                       # number of WriteLineReq MSHR miss ticks (Tick)
system.cpu.dcache.WriteLineReq.mshrMissRate::cpu.data            1                       # mshr miss rate for WriteLineReq accesses (Ratio)
system.cpu.dcache.WriteLineReq.mshrMissRate::total            1                       # mshr miss rate for WriteLineReq accesses (Ratio)
system.cpu.dcache.WriteLineReq.avgMshrMissLatency::cpu.data  9777.555556                       # average WriteLineReq mshr miss latency ((Tick/Count))
system.cpu.dcache.WriteLineReq.avgMshrMissLatency::total  9777.555556                       # average WriteLineReq mshr miss latency ((Tick/Count))
system.cpu.dcache.WriteReq.hits::cpu.data     16566034                       # number of WriteReq hits (Count)
system.cpu.dcache.WriteReq.hits::total       16566034                       # number of WriteReq hits (Count)
system.cpu.dcache.WriteReq.misses::cpu.data        63763                       # number of WriteReq misses (Count)
system.cpu.dcache.WriteReq.misses::total        63763                       # number of WriteReq misses (Count)
system.cpu.dcache.WriteReq.missLatency::cpu.data   1878714597                       # number of WriteReq miss ticks (Tick)
system.cpu.dcache.WriteReq.missLatency::total   1878714597                       # number of WriteReq miss ticks (Tick)
system.cpu.dcache.WriteReq.accesses::cpu.data     16629797                       # number of WriteReq accesses(hits+misses) (Count)
system.cpu.dcache.WriteReq.accesses::total     16629797                       # number of WriteReq accesses(hits+misses) (Count)
system.cpu.dcache.WriteReq.missRate::cpu.data     0.003834                       # miss rate for WriteReq accesses (Ratio)
system.cpu.dcache.WriteReq.missRate::total     0.003834                       # miss rate for WriteReq accesses (Ratio)
system.cpu.dcache.WriteReq.avgMissLatency::cpu.data 29464.024544                       # average WriteReq miss latency ((Tick/Count))
system.cpu.dcache.WriteReq.avgMissLatency::total 29464.024544                       # average WriteReq miss latency ((Tick/Count))
system.cpu.dcache.WriteReq.mshrHits::cpu.data        26025                       # number of WriteReq MSHR hits (Count)
system.cpu.dcache.WriteReq.mshrHits::total        26025                       # number of WriteReq MSHR hits (Count)
system.cpu.dcache.WriteReq.mshrMisses::cpu.data        37738                       # number of WriteReq MSHR misses (Count)
system.cpu.dcache.WriteReq.mshrMisses::total        37738                       # number of WriteReq MSHR misses (Count)
system.cpu.dcache.WriteReq.mshrMissLatency::cpu.data   1107306645                       # number of WriteReq MSHR miss ticks (Tick)
system.cpu.dcache.WriteReq.mshrMissLatency::total   1107306645                       # number of WriteReq MSHR miss ticks (Tick)
system.cpu.dcache.WriteReq.mshrMissRate::cpu.data     0.002269                       # mshr miss rate for WriteReq accesses (Ratio)
system.cpu.dcache.WriteReq.mshrMissRate::total     0.002269                       # mshr miss rate for WriteReq accesses (Ratio)
system.cpu.dcache.WriteReq.avgMshrMissLatency::cpu.data 29341.953601                       # average WriteReq mshr miss latency ((Tick/Count))
system.cpu.dcache.WriteReq.avgMshrMissLatency::total 29341.953601                       # average WriteReq mshr miss latency ((Tick/Count))
system.cpu.dcache.power_state.pwrStateResidencyTicks::UNDEFINED  59800120500                       # Cumulative time (in ticks) in various power states (Tick)
system.cpu.dcache.tags.tagsInUse           511.286694                       # Average ticks per tags in use ((Tick/Count))
system.cpu.dcache.tags.totalRefs             39822976                       # Total number of references to valid blocks. (Count)
system.cpu.dcache.tags.sampledRefs            2190556                       # Sample count of references to valid blocks. (Count)
system.cpu.dcache.tags.avgRefs              18.179392                       # Average number of references to valid blocks. ((Count/Count))
system.cpu.dcache.tags.warmupTick              145000                       # The tick when the warmup percentage was hit. (Tick)
system.cpu.dcache.tags.occupancies::cpu.data   511.286694                       # Average occupied blocks per tick, per requestor ((Count/Tick))
system.cpu.dcache.tags.avgOccs::cpu.data     0.998607                       # Average percentage of cache occupancy ((Ratio/Tick))
system.cpu.dcache.tags.avgOccs::total        0.998607                       # Average percentage of cache occupancy ((Ratio/Tick))
system.cpu.dcache.tags.occupanciesTaskId::1024          512                       # Occupied blocks per task id (Count)
system.cpu.dcache.tags.ageTaskId_1024::0           65                       # Occupied blocks per task id, per block age (Count)
system.cpu.dcache.tags.ageTaskId_1024::1           13                       # Occupied blocks per task id, per block age (Count)
system.cpu.dcache.tags.ageTaskId_1024::2          125                       # Occupied blocks per task id, per block age (Count)
system.cpu.dcache.tags.ageTaskId_1024::3          156                       # Occupied blocks per task id, per block age (Count)
system.cpu.dcache.tags.ageTaskId_1024::4          153                       # Occupied blocks per task id, per block age (Count)
system.cpu.dcache.tags.ratioOccsTaskId::1024            1                       # Ratio of occupied blocks and all blocks, per task id (Ratio)
system.cpu.dcache.tags.tagAccesses           82036200                       # Number of tag accesses (Count)
system.cpu.dcache.tags.dataAccesses          82036200                       # Number of data accesses (Count)
system.cpu.dcache.tags.power_state.pwrStateResidencyTicks::UNDEFINED  59800120500                       # Cumulative time (in ticks) in various power states (Tick)
system.cpu.decode.idleCycles                 15742886                       # Number of cycles decode is idle (Cycle)
system.cpu.decode.blockedCycles              76080628                       # Number of cycles decode is blocked (Cycle)
system.cpu.decode.runCycles                  19197600                       # Number of cycles decode is running (Cycle)
system.cpu.decode.unblockCycles               6565797                       # Number of cycles decode is unblocking (Cycle)
system.cpu.decode.squashCycles                 296670                       # Number of cycles decode is squashing (Cycle)
system.cpu.decode.branchResolved             10747913                       # Number of times decode resolved a branch (Count)
system.cpu.decode.branchMispred                 13402                       # Number of times decode detected a branch misprediction (Count)
system.cpu.decode.decodedInsts              158118741                       # Number of instructions handled by decode (Count)
system.cpu.decode.squashedInsts                 95137                       # Number of squashed instructions handled by decode (Count)
system.cpu.fetch.icacheStallCycles           23515505                       # Number of cycles fetch is stalled on an Icache miss (Cycle)
system.cpu.fetch.insts                      149180492                       # Number of instructions fetch has processed (Count)
system.cpu.fetch.branches                    22275218                       # Number of branches that fetch encountered (Count)
system.cpu.fetch.predictedBranches           12415662                       # Number of branches that fetch has predicted taken (Count)
system.cpu.fetch.cycles                      94057885                       # Number of cycles fetch has run and was not squashing or blocked (Cycle)
system.cpu.fetch.squashCycles                  620126                       # Number of cycles fetch has spent squashing (Cycle)
system.cpu.fetch.miscStallCycles                    8                       # Number of cycles fetch has spent waiting on interrupts, or bad addresses, or out of MSHRs (Cycle)
system.cpu.fetch.icacheWaitRetryStallCycles          120                       # Number of stall cycles due to full MSHR (Cycle)
system.cpu.fetch.cacheLines                  20585136                       # Number of cache lines fetched (Count)
system.cpu.fetch.icacheSquashes                103809                       # Number of outstanding Icache misses that were squashed (Count)
system.cpu.fetch.nisnDist::samples          117883581                       # Number of instructions fetched each cycle (Total) (Count)
system.cpu.fetch.nisnDist::mean              1.375648                       # Number of instructions fetched each cycle (Total) (Count)
system.cpu.fetch.nisnDist::stdev             2.665723                       # Number of instructions fetched each cycle (Total) (Count)
system.cpu.fetch.nisnDist::underflows               0      0.00%      0.00% # Number of instructions fetched each cycle (Total) (Count)
system.cpu.fetch.nisnDist::0                 84914693     72.03%     72.03% # Number of instructions fetched each cycle (Total) (Count)
system.cpu.fetch.nisnDist::1                  6555142      5.56%     77.59% # Number of instructions fetched each cycle (Total) (Count)
system.cpu.fetch.nisnDist::2                  3648334      3.09%     80.69% # Number of instructions fetched each cycle (Total) (Count)
system.cpu.fetch.nisnDist::3                  2158171      1.83%     82.52% # Number of instructions fetched each cycle (Total) (Count)
system.cpu.fetch.nisnDist::4                  2434347      2.07%     84.58% # Number of instructions fetched each cycle (Total) (Count)
system.cpu.fetch.nisnDist::5                  1965460      1.67%     86.25% # Number of instructions fetched each cycle (Total) (Count)
system.cpu.fetch.nisnDist::6                  2801753      2.38%     88.63% # Number of instructions fetched each cycle (Total) (Count)
system.cpu.fetch.nisnDist::7                  1780722      1.51%     90.14% # Number of instructions fetched each cycle (Total) (Count)
system.cpu.fetch.nisnDist::8                 11624959      9.86%    100.00% # Number of instructions fetched each cycle (Total) (Count)
system.cpu.fetch.nisnDist::overflows                0      0.00%    100.00% # Number of instructions fetched each cycle (Total) (Count)
system.cpu.fetch.nisnDist::min_value                0                       # Number of instructions fetched each cycle (Total) (Count)
system.cpu.fetch.nisnDist::max_value                8                       # Number of instructions fetched each cycle (Total) (Count)
system.cpu.fetch.nisnDist::total            117883581                       # Number of instructions fetched each cycle (Total) (Count)
system.cpu.fetch.branchRate                  0.186247                       # Number of branch fetches per cycle (Ratio)
system.cpu.fetch.rate                        1.247326                       # Number of inst fetches per cycle ((Count/Cycle))
system.cpu.icache.demandHits::cpu.inst       20477577                       # number of demand (read+write) hits (Count)
system.cpu.icache.demandHits::total          20477577                       # number of demand (read+write) hits (Count)
system.cpu.icache.overallHits::cpu.inst      20477577                       # number of overall hits (Count)
system.cpu.icache.overallHits::total         20477577                       # number of overall hits (Count)
system.cpu.icache.demandMisses::cpu.inst       107559                       # number of demand (read+write) misses (Count)
system.cpu.icache.demandMisses::total          107559                       # number of demand (read+write) misses (Count)
system.cpu.icache.overallMisses::cpu.inst       107559                       # number of overall misses (Count)
system.cpu.icache.overallMisses::total         107559                       # number of overall misses (Count)
system.cpu.icache.demandMissLatency::cpu.inst   2497144997                       # number of demand (read+write) miss ticks (Tick)
system.cpu.icache.demandMissLatency::total   2497144997                       # number of demand (read+write) miss ticks (Tick)
system.cpu.icache.overallMissLatency::cpu.inst   2497144997                       # number of overall miss ticks (Tick)
system.cpu.icache.overallMissLatency::total   2497144997                       # number of overall miss ticks (Tick)
system.cpu.icache.demandAccesses::cpu.inst     20585136                       # number of demand (read+write) accesses (Count)
system.cpu.icache.demandAccesses::total      20585136                       # number of demand (read+write) accesses (Count)
system.cpu.icache.overallAccesses::cpu.inst     20585136                       # number of overall (read+write) accesses (Count)
system.cpu.icache.overallAccesses::total     20585136                       # number of overall (read+write) accesses (Count)
system.cpu.icache.demandMissRate::cpu.inst     0.005225                       # miss rate for demand accesses (Ratio)
system.cpu.icache.demandMissRate::total      0.005225                       # miss rate for demand accesses (Ratio)
system.cpu.icache.overallMissRate::cpu.inst     0.005225                       # miss rate for overall accesses (Ratio)
system.cpu.icache.overallMissRate::total     0.005225                       # miss rate for overall accesses (Ratio)
system.cpu.icache.demandAvgMissLatency::cpu.inst 23216.513699                       # average overall miss latency ((Cycle/Count))
system.cpu.icache.demandAvgMissLatency::total 23216.513699                       # average overall miss latency ((Cycle/Count))
system.cpu.icache.overallAvgMissLatency::cpu.inst 23216.513699                       # average overall miss latency ((Cycle/Count))
system.cpu.icache.overallAvgMissLatency::total 23216.513699                       # average overall miss latency ((Cycle/Count))
system.cpu.icache.blockedCycles::no_mshrs         1229                       # number of cycles access was blocked (Cycle)
system.cpu.icache.blockedCycles::no_targets            0                       # number of cycles access was blocked (Cycle)
system.cpu.icache.blockedCauses::no_mshrs           23                       # number of times access was blocked (Count)
system.cpu.icache.blockedCauses::no_targets            0                       # number of times access was blocked (Count)
system.cpu.icache.avgBlocked::no_mshrs      53.434783                       # average number of cycles each access was blocked ((Cycle/Count))
system.cpu.icache.avgBlocked::no_targets          nan                       # average number of cycles each access was blocked ((Cycle/Count))
system.cpu.icache.writebacks::writebacks       101941                       # number of writebacks (Count)
system.cpu.icache.writebacks::total            101941                       # number of writebacks (Count)
system.cpu.icache.demandMshrHits::cpu.inst         5117                       # number of demand (read+write) MSHR hits (Count)
system.cpu.icache.demandMshrHits::total          5117                       # number of demand (read+write) MSHR hits (Count)
system.cpu.icache.overallMshrHits::cpu.inst         5117                       # number of overall MSHR hits (Count)
system.cpu.icache.overallMshrHits::total         5117                       # number of overall MSHR hits (Count)
system.cpu.icache.demandMshrMisses::cpu.inst       102442                       # number of demand (read+write) MSHR misses (Count)
system.cpu.icache.demandMshrMisses::total       102442                       # number of demand (read+write) MSHR misses (Count)
system.cpu.icache.overallMshrMisses::cpu.inst       102442                       # number of overall MSHR misses (Count)
system.cpu.icache.overallMshrMisses::total       102442                       # number of overall MSHR misses (Count)
system.cpu.icache.demandMshrMissLatency::cpu.inst   2311499998                       # number of demand (read+write) MSHR miss ticks (Tick)
system.cpu.icache.demandMshrMissLatency::total   2311499998                       # number of demand (read+write) MSHR miss ticks (Tick)
system.cpu.icache.overallMshrMissLatency::cpu.inst   2311499998                       # number of overall MSHR miss ticks (Tick)
system.cpu.icache.overallMshrMissLatency::total   2311499998                       # number of overall MSHR miss ticks (Tick)
system.cpu.icache.demandMshrMissRate::cpu.inst     0.004977                       # mshr miss ratio for demand accesses (Ratio)
system.cpu.icache.demandMshrMissRate::total     0.004977                       # mshr miss ratio for demand accesses (Ratio)
system.cpu.icache.overallMshrMissRate::cpu.inst     0.004977                       # mshr miss ratio for overall accesses (Ratio)
system.cpu.icache.overallMshrMissRate::total     0.004977                       # mshr miss ratio for overall accesses (Ratio)
system.cpu.icache.demandAvgMshrMissLatency::cpu.inst 22563.987408                       # average overall mshr miss latency ((Cycle/Count))
system.cpu.icache.demandAvgMshrMissLatency::total 22563.987408                       # average overall mshr miss latency ((Cycle/Count))
system.cpu.icache.overallAvgMshrMissLatency::cpu.inst 22563.987408                       # average overall mshr miss latency ((Cycle/Count))
system.cpu.icache.overallAvgMshrMissLatency::total 22563.987408                       # average overall mshr miss latency ((Cycle/Count))
system.cpu.icache.replacements                 101941                       # number of replacements (Count)
system.cpu.icache.ReadReq.hits::cpu.inst     20477577                       # number of ReadReq hits (Count)
system.cpu.icache.ReadReq.hits::total        20477577                       # number of ReadReq hits (Count)
system.cpu.icache.ReadReq.misses::cpu.inst       107559                       # number of ReadReq misses (Count)
system.cpu.icache.ReadReq.misses::total        107559                       # number of ReadReq misses (Count)
system.cpu.icache.ReadReq.missLatency::cpu.inst   2497144997                       # number of ReadReq miss ticks (Tick)
system.cpu.icache.ReadReq.missLatency::total   2497144997                       # number of ReadReq miss ticks (Tick)
system.cpu.icache.ReadReq.accesses::cpu.inst     20585136                       # number of ReadReq accesses(hits+misses) (Count)
system.cpu.icache.ReadReq.accesses::total     20585136                       # number of ReadReq accesses(hits+misses) (Count)
system.cpu.icache.ReadReq.missRate::cpu.inst     0.005225                       # miss rate for ReadReq accesses (Ratio)
system.cpu.icache.ReadReq.missRate::total     0.005225                       # miss rate for ReadReq accesses (Ratio)
system.cpu.icache.ReadReq.avgMissLatency::cpu.inst 23216.513699                       # average ReadReq miss latency ((Tick/Count))
system.cpu.icache.ReadReq.avgMissLatency::total 23216.513699                       # average ReadReq miss latency ((Tick/Count))
system.cpu.icache.ReadReq.mshrHits::cpu.inst         5117                       # number of ReadReq MSHR hits (Count)
system.cpu.icache.ReadReq.mshrHits::total         5117                       # number of ReadReq MSHR hits (Count)
system.cpu.icache.ReadReq.mshrMisses::cpu.inst       102442                       # number of ReadReq MSHR misses (Count)
system.cpu.icache.ReadReq.mshrMisses::total       102442                       # number of ReadReq MSHR misses (Count)
system.cpu.icache.ReadReq.mshrMissLatency::cpu.inst   2311499998                       # number of ReadReq MSHR miss ticks (Tick)
system.cpu.icache.ReadReq.mshrMissLatency::total   2311499998                       # number of ReadReq MSHR miss ticks (Tick)
system.cpu.icache.ReadReq.mshrMissRate::cpu.inst     0.004977                       # mshr miss rate for ReadReq accesses (Ratio)
system.cpu.icache.ReadReq.mshrMissRate::total     0.004977                       # mshr miss rate for ReadReq accesses (Ratio)
system.cpu.icache.ReadReq.avgMshrMissLatency::cpu.inst 22563.987408                       # average ReadReq mshr miss latency ((Tick/Count))
system.cpu.icache.ReadReq.avgMshrMissLatency::total 22563.987408                       # average ReadReq mshr miss latency ((Tick/Count))
system.cpu.icache.power_state.pwrStateResidencyTicks::UNDEFINED  59800120500                       # Cumulative time (in ticks) in various power states (Tick)
system.cpu.icache.tags.tagsInUse           493.032308                       # Average ticks per tags in use ((Tick/Count))
system.cpu.icache.tags.totalRefs             20580018                       # Total number of references to valid blocks. (Count)
system.cpu.icache.tags.sampledRefs             102441                       # Sample count of references to valid blocks. (Count)
system.cpu.icache.tags.avgRefs             200.896301                       # Average number of references to valid blocks. ((Count/Count))
system.cpu.icache.tags.warmupTick               77000                       # The tick when the warmup percentage was hit. (Tick)
system.cpu.icache.tags.occupancies::cpu.inst   493.032308                       # Average occupied blocks per tick, per requestor ((Count/Tick))
system.cpu.icache.tags.avgOccs::cpu.inst     0.962954                       # Average percentage of cache occupancy ((Ratio/Tick))
system.cpu.icache.tags.avgOccs::total        0.962954                       # Average percentage of cache occupancy ((Ratio/Tick))
system.cpu.icache.tags.occupanciesTaskId::1024          500                       # Occupied blocks per task id (Count)
system.cpu.icache.tags.ageTaskId_1024::0           96                       # Occupied blocks per task id, per block age (Count)
system.cpu.icache.tags.ageTaskId_1024::3           27                       # Occupied blocks per task id, per block age (Count)
system.cpu.icache.tags.ageTaskId_1024::4          377                       # Occupied blocks per task id, per block age (Count)
system.cpu.icache.tags.ratioOccsTaskId::1024     0.976562                       # Ratio of occupied blocks and all blocks, per task id (Ratio)
system.cpu.icache.tags.tagAccesses           41272713                       # Number of tag accesses (Count)
system.cpu.icache.tags.dataAccesses          41272713                       # Number of data accesses (Count)
system.cpu.icache.tags.power_state.pwrStateResidencyTicks::UNDEFINED  59800120500                       # Cumulative time (in ticks) in various power states (Tick)
system.cpu.iew.idleCycles                           0                       # Number of cycles IEW is idle (Cycle)
system.cpu.iew.squashCycles                    296670                       # Number of cycles IEW is squashing (Cycle)
system.cpu.iew.blockCycles                    3546418                       # Number of cycles IEW is blocking (Cycle)
system.cpu.iew.unblockCycles                  5219395                       # Number of cycles IEW is unblocking (Cycle)
[...]
system.mem_ctrls.dram.bwRead::cpu.inst      109635632                       # Total read bandwidth from this memory ((Byte/Second))
system.mem_ctrls.dram.bwRead::cpu.data     2344377350                       # Total read bandwidth from this memory ((Byte/Second))
system.mem_ctrls.dram.bwRead::total        2454012981                       # Total read bandwidth from this memory ((Byte/Second))
system.mem_ctrls.dram.bwInstRead::cpu.inst    109635632                       # Instruction read bandwidth from this memory ((Byte/Second))
system.mem_ctrls.dram.bwInstRead::total     109635632                       # Instruction read bandwidth from this memory ((Byte/Second))
system.mem_ctrls.dram.bwWrite::writebacks     40303865                       # Write bandwidth from this memory ((Byte/Second))
system.mem_ctrls.dram.bwWrite::total         40303865                       # Write bandwidth from this memory ((Byte/Second))
system.mem_ctrls.dram.bwTotal::writebacks     40303865                       # Total bandwidth to/from this memory ((Byte/Second))
system.mem_ctrls.dram.bwTotal::cpu.inst     109635632                       # Total bandwidth to/from this memory ((Byte/Second))
system.mem_ctrls.dram.bwTotal::cpu.data    2344377350                       # Total bandwidth to/from this memory ((Byte/Second))
system.mem_ctrls.dram.bwTotal::total       2494316847                       # Total bandwidth to/from this memory ((Byte/Second))
system.mem_ctrls.dram.readBursts              2159625                       # Number of DRAM read bursts (Count)
system.mem_ctrls.dram.writeBursts                8663                       # Number of DRAM write bursts (Count)
system.mem_ctrls.dram.perBankRdBursts::0       133062                       # Per bank write bursts (Count)
system.mem_ctrls.dram.perBankRdBursts::1       133077                       # Per bank write bursts (Count)
system.mem_ctrls.dram.perBankRdBursts::2       133159                       # Per bank write bursts (Count)
system.mem_ctrls.dram.perBankRdBursts::3       133079                       # Per bank write bursts (Count)
system.mem_ctrls.dram.perBankRdBursts::4       144931                       # Per bank write bursts (Count)
system.mem_ctrls.dram.perBankRdBursts::5       133309                       # Per bank write bursts (Count)
system.mem_ctrls.dram.perBankRdBursts::6       132818                       # Per bank write bursts (Count)
system.mem_ctrls.dram.perBankRdBursts::7       132939                       # Per bank write bursts (Count)
system.mem_ctrls.dram.perBankRdBursts::8       144677                       # Per bank write bursts (Count)
system.mem_ctrls.dram.perBankRdBursts::9       133018                       # Per bank write bursts (Count)
system.mem_ctrls.dram.perBankRdBursts::10       136710                       # Per bank write bursts (Count)
system.mem_ctrls.dram.perBankRdBursts::11       133064                       # Per bank write bursts (Count)
system.mem_ctrls.dram.perBankRdBursts::12       136931                       # Per bank write bursts (Count)
system.mem_ctrls.dram.perBankRdBursts::13       132941                       # Per bank write bursts (Count)
system.mem_ctrls.dram.perBankRdBursts::14       132985                       # Per bank write bursts (Count)
system.mem_ctrls.dram.perBankRdBursts::15       132925                       # Per bank write bursts (Count)
system.mem_ctrls.dram.perBankWrBursts::0          454                       # Per bank write bursts (Count)
system.mem_ctrls.dram.perBankWrBursts::1          471                       # Per bank write bursts (Count)
system.mem_ctrls.dram.perBankWrBursts::2          550                       # Per bank write bursts (Count)
system.mem_ctrls.dram.perBankWrBursts::3          575                       # Per bank write bursts (Count)
system.mem_ctrls.dram.perBankWrBursts::4          517                       # Per bank write bursts (Count)
system.mem_ctrls.dram.perBankWrBursts::5          597                       # Per bank write bursts (Count)
system.mem_ctrls.dram.perBankWrBursts::6          618                       # Per bank write bursts (Count)
system.mem_ctrls.dram.perBankWrBursts::7          508                       # Per bank write bursts (Count)
system.mem_ctrls.dram.perBankWrBursts::8          708                       # Per bank write bursts (Count)
system.mem_ctrls.dram.perBankWrBursts::9          588                       # Per bank write bursts (Count)
system.mem_ctrls.dram.perBankWrBursts::10          437                       # Per bank write bursts (Count)
system.mem_ctrls.dram.perBankWrBursts::11          653                       # Per bank write bursts (Count)
system.mem_ctrls.dram.perBankWrBursts::12          463                       # Per bank write bursts (Count)
system.mem_ctrls.dram.perBankWrBursts::13          675                       # Per bank write bursts (Count)
system.mem_ctrls.dram.perBankWrBursts::14          429                       # Per bank write bursts (Count)
system.mem_ctrls.dram.perBankWrBursts::15          420                       # Per bank write bursts (Count)
system.mem_ctrls.dram.totQLat             15725945500                       # Total ticks spent queuing (Tick)
system.mem_ctrls.dram.totBusLat           10798125000                       # Total ticks spent in databus transfers (Tick)
system.mem_ctrls.dram.totMemAccLat        56218914250                       # Total ticks spent from burst creation until serviced by the DRAM (Tick)
system.mem_ctrls.dram.avgQLat                 7281.79                       # Average queueing delay per DRAM burst ((Tick/Count))
system.mem_ctrls.dram.avgBusLat               5000.00                       # Average bus latency per DRAM burst ((Tick/Count))
system.mem_ctrls.dram.avgMemAccLat           26031.79                       # Average memory access latency per DRAM burst ((Tick/Count))
system.mem_ctrls.dram.readRowHits             1948653                       # Number of row buffer hits during reads (Count)
system.mem_ctrls.dram.writeRowHits               7013                       # Number of row buffer hits during writes (Count)
system.mem_ctrls.dram.readRowHitRate            90.23                       # Row buffer hit rate for reads (Ratio)
system.mem_ctrls.dram.writeRowHitRate           80.95                       # Row buffer hit rate for writes (Ratio)
system.mem_ctrls.dram.bytesPerActivate::samples       212615                       # Bytes accessed per row activation (Byte)
system.mem_ctrls.dram.bytesPerActivate::mean   652.679294                       # Bytes accessed per row activation (Byte)
system.mem_ctrls.dram.bytesPerActivate::gmean   495.255201                       # Bytes accessed per row activation (Byte)
system.mem_ctrls.dram.bytesPerActivate::stdev   366.429241                       # Bytes accessed per row activation (Byte)
system.mem_ctrls.dram.bytesPerActivate::0-127        20544      9.66%      9.66% # Bytes accessed per row activation (Byte)
system.mem_ctrls.dram.bytesPerActivate::128-255        21060      9.91%     19.57% # Bytes accessed per row activation (Byte)
system.mem_ctrls.dram.bytesPerActivate::256-383        19034      8.95%     28.52% # Bytes accessed per row activation (Byte)
system.mem_ctrls.dram.bytesPerActivate::384-511         4376      2.06%     30.58% # Bytes accessed per row activation (Byte)
system.mem_ctrls.dram.bytesPerActivate::512-639        46593     21.91%     52.49% # Bytes accessed per row activation (Byte)
system.mem_ctrls.dram.bytesPerActivate::640-767         1999      0.94%     53.43% # Bytes accessed per row activation (Byte)
system.mem_ctrls.dram.bytesPerActivate::768-895         2144      1.01%     54.44% # Bytes accessed per row activation (Byte)
system.mem_ctrls.dram.bytesPerActivate::896-1023         2026      0.95%     55.39% # Bytes accessed per row activation (Byte)
system.mem_ctrls.dram.bytesPerActivate::1024-1151        94839     44.61%    100.00% # Bytes accessed per row activation (Byte)
system.mem_ctrls.dram.bytesPerActivate::total       212615                       # Bytes accessed per row activation (Byte)
system.mem_ctrls.dram.bytesRead             138216000                       # Total bytes read (Byte)
system.mem_ctrls.dram.bytesWritten             554432                       # Total bytes written (Byte)
system.mem_ctrls.dram.avgRdBW             2311.299690                       # Average DRAM read bandwidth in MiBytes/s ((Byte/Second))
system.mem_ctrls.dram.avgWrBW                9.271419                       # Average DRAM write bandwidth in MiBytes/s ((Byte/Second))
system.mem_ctrls.dram.peakBW                 12800.00                       # Theoretical peak bandwidth in MiByte/s ((Byte/Second))
system.mem_ctrls.dram.busUtil                   18.13                       # Data bus utilization in percentage (Ratio)
system.mem_ctrls.dram.busUtilRead               18.06                       # Data bus utilization in percentage for reads (Ratio)
system.mem_ctrls.dram.busUtilWrite               0.07                       # Data bus utilization in percentage for writes (Ratio)
system.mem_ctrls.dram.pageHitRate               90.19                       # Row buffer hit rate, read and write combined (Ratio)
system.mem_ctrls.dram.power_state.pwrStateResidencyTicks::UNDEFINED  59800120500                       # Cumulative time (in ticks) in various power states (Tick)
system.mem_ctrls.dram.rank0.actEnergy       831888540                       # Energy for activate commands per rank (pJ) (Joule)
system.mem_ctrls.dram.rank0.preEnergy       442144065                       # Energy for precharge commands per rank (pJ) (Joule)
system.mem_ctrls.dram.rank0.readEnergy     7685303220                       # Energy for read commands per rank (pJ) (Joule)
system.mem_ctrls.dram.rank0.writeEnergy      22393800                       # Energy for write commands per rank (pJ) (Joule)
system.mem_ctrls.dram.rank0.refreshEnergy 4720435200.000001                       # Energy for refresh commands per rank (pJ) (Joule)
system.mem_ctrls.dram.rank0.actBackEnergy  24496829580                       # Energy for active background per rank (pJ) (Joule)
system.mem_ctrls.dram.rank0.preBackEnergy   2334337440                       # Energy for precharge background per rank (pJ) (Joule)
system.mem_ctrls.dram.rank0.actPowerDownEnergy            0                       # Energy for active power-down per rank (pJ) (Joule)
system.mem_ctrls.dram.rank0.prePowerDownEnergy            0                       # Energy for precharge power-down per rank (pJ) (Joule)
system.mem_ctrls.dram.rank0.selfRefreshEnergy            0                       # Energy for self refresh per rank (pJ) (Joule)
system.mem_ctrls.dram.rank0.totalEnergy   40533331845                       # Total energy per rank (pJ) (Joule)
system.mem_ctrls.dram.rank0.averagePower   677.813548                       # Core power per rank (mW) (Watt)
system.mem_ctrls.dram.rank0.totalIdleTime            0                       # Total Idle time Per DRAM Rank (Tick)
system.mem_ctrls.dram.rank0.pwrStateTime::IDLE   5855627250                       # Time in different power states (Tick)
system.mem_ctrls.dram.rank0.pwrStateTime::REF   1996800000                       # Time in different power states (Tick)
system.mem_ctrls.dram.rank0.pwrStateTime::SREF            0                       # Time in different power states (Tick)
system.mem_ctrls.dram.rank0.pwrStateTime::PRE_PDN            0                       # Time in different power states (Tick)
system.mem_ctrls.dram.rank0.pwrStateTime::ACT  51947693250                       # Time in different power states (Tick)
system.mem_ctrls.dram.rank0.pwrStateTime::ACT_PDN            0                       # Time in different power states (Tick)
system.mem_ctrls.dram.rank1.actEnergy       686225400                       # Energy for activate commands per rank (pJ) (Joule)
system.mem_ctrls.dram.rank1.preEnergy       364729860                       # Energy for precharge commands per rank (pJ) (Joule)
system.mem_ctrls.dram.rank1.readEnergy     7734412140                       # Energy for read commands per rank (pJ) (Joule)
system.mem_ctrls.dram.rank1.writeEnergy      22827060                       # Energy for write commands per rank (pJ) (Joule)
system.mem_ctrls.dram.rank1.refreshEnergy 4720435200.000001                       # Energy for refresh commands per rank (pJ) (Joule)
system.mem_ctrls.dram.rank1.actBackEnergy  25134869910                       # Energy for active background per rank (pJ) (Joule)
system.mem_ctrls.dram.rank1.preBackEnergy   1797040320                       # Energy for precharge background per rank (pJ) (Joule)
system.mem_ctrls.dram.rank1.actPowerDownEnergy            0                       # Energy for active power-down per rank (pJ) (Joule)
system.mem_ctrls.dram.rank1.prePowerDownEnergy            0                       # Energy for precharge power-down per rank (pJ) (Joule)
system.mem_ctrls.dram.rank1.selfRefreshEnergy            0                       # Energy for self refresh per rank (pJ) (Joule)
system.mem_ctrls.dram.rank1.totalEnergy   40460539890                       # Total energy per rank (pJ) (Joule)
system.mem_ctrls.dram.rank1.averagePower   676.596294                       # Core power per rank (mW) (Watt)
system.mem_ctrls.dram.rank1.totalIdleTime            0                       # Total Idle time Per DRAM Rank (Tick)
system.mem_ctrls.dram.rank1.pwrStateTime::IDLE   4410239750                       # Time in different power states (Tick)
system.mem_ctrls.dram.rank1.pwrStateTime::REF   1996800000                       # Time in different power states (Tick)
system.mem_ctrls.dram.rank1.pwrStateTime::SREF            0                       # Time in different power states (Tick)
system.mem_ctrls.dram.rank1.pwrStateTime::PRE_PDN            0                       # Time in different power states (Tick)
system.mem_ctrls.dram.rank1.pwrStateTime::ACT  53393080750                       # Time in different power states (Tick)
system.mem_ctrls.dram.rank1.pwrStateTime::ACT_PDN            0                       # Time in different power states (Tick)
system.mem_ctrls.power_state.pwrStateResidencyTicks::UNDEFINED  59800120500                       # Cumulative time (in ticks) in various power states (Tick)
system.membus.transDist::ReadResp             2255250                       # Transaction distribution (Count)
system.membus.transDist::WritebackDirty         37659                       # Transaction distribution (Count)
system.membus.transDist::WritebackClean        101941                       # Transaction distribution (Count)
system.membus.transDist::CleanEvict           2152385                       # Transaction distribution (Count)
system.membus.transDist::ReadExReq              37723                       # Transaction distribution (Count)
system.membus.transDist::ReadExResp             37723                       # Transaction distribution (Count)
system.membus.transDist::ReadCleanReq          102442                       # Transaction distribution (Count)
system.membus.transDist::ReadSharedReq        2152809                       # Transaction distribution (Count)
system.membus.transDist::InvalidateReq             24                       # Transaction distribution (Count)
system.membus.pktCount_system.cpu.icache.mem_side_port::system.mem_ctrls.port       306824                       # Packet count per connected requestor and responder (Count)
system.membus.pktCount_system.cpu.dcache.mem_side_port::system.mem_ctrls.port      6571132                       # Packet count per connected requestor and responder (Count)
system.membus.pktCount::total                 6877956                       # Packet count per connected requestor and responder (Count)
system.membus.pktSize_system.cpu.icache.mem_side_port::system.mem_ctrls.port     13080448                       # Cumulative packet size per connected requestor and responder (Byte)
system.membus.pktSize_system.cpu.dcache.mem_side_port::system.mem_ctrls.port    142604224                       # Cumulative packet size per connected requestor and responder (Byte)
system.membus.pktSize::total                155684672                       # Cumulative packet size per connected requestor and responder (Byte)
system.membus.snoops                                0                       # Total snoops (Count)
system.membus.snoopTraffic                          0                       # Total snoop traffic (Byte)
system.membus.snoopFanout::samples            2292998                       # Request fanout histogram (Count)
system.membus.snoopFanout::mean              0.000001                       # Request fanout histogram (Count)
system.membus.snoopFanout::stdev             0.000934                       # Request fanout histogram (Count)
system.membus.snoopFanout::underflows               0      0.00%      0.00% # Request fanout histogram (Count)
system.membus.snoopFanout::0                  2292996    100.00%    100.00% # Request fanout histogram (Count)
system.membus.snoopFanout::1                        2      0.00%    100.00% # Request fanout histogram (Count)
system.membus.snoopFanout::2                        0      0.00%    100.00% # Request fanout histogram (Count)
system.membus.snoopFanout::overflows                0      0.00%    100.00% # Request fanout histogram (Count)
system.membus.snoopFanout::min_value                0                       # Request fanout histogram (Count)
system.membus.snoopFanout::max_value                1                       # Request fanout histogram (Count)
system.membus.snoopFanout::total              2292998                       # Request fanout histogram (Count)
system.membus.power_state.pwrStateResidencyTicks::UNDEFINED  59800120500                       # Cumulative time (in ticks) in various power states (Tick)
system.membus.reqLayer0.occupancy          5893883000                       # Layer occupancy (ticks) (Tick)
system.membus.reqLayer0.utilization               0.1                       # Layer utilization (Ratio)
system.membus.respLayer1.occupancy          512762250                       # Layer occupancy (ticks) (Tick)
system.membus.respLayer1.utilization              0.0                       # Layer utilization (Ratio)
system.membus.respLayer2.occupancy        11374008000                       # Layer occupancy (ticks) (Tick)
system.membus.respLayer2.utilization              0.2                       # Layer utilization (Ratio)
system.membus.snoop_filter.totRequests        4584983                       # Total number of requests made to the snoop filter. (Count)
system.membus.snoop_filter.hitSingleRequests      2291986                       # Number of requests hitting in the snoop filter with a single holder of the requested data. (Count)
system.membus.snoop_filter.hitMultiRequests            1                       # Number of requests hitting in the snoop filter with multiple (>1) holders of the requested data. (Count)
system.membus.snoop_filter.totSnoops                0                       # Total number of snoops made to the snoop filter. (Count)
system.membus.snoop_filter.hitSingleSnoops            0                       # Number of snoops hitting in the snoop filter with a single holder of the requested data. (Count)
system.membus.snoop_filter.hitMultiSnoops            0                       # Number of snoops hitting in the snoop filter with multiple (>1) holders of the requested data. (Count)
system.voltage_domain.voltage                       1                       # Voltage in Volts (Volt)
system.workload.inst.arm                            0                       # number of arm instructions executed (Count)
system.workload.inst.quiesce                        0                       # number of quiesce instructions executed (Count)

---------- End Simulation Statistics   ----------
