
---------- Begin Simulation Statistics ----------
simSeconds                                   0.062834                       # Number of seconds simulated (Second)
simTicks                                  62833674500                       # Number of ticks simulated (Tick)
finalTick                                 62833674500                       # Number of ticks from beginning of simulation (restored from checkpoints and never reset) (Tick)
simFreq                                  1000000000000                       # The number of ticks per simulated second ((Tick/Second))
hostSeconds                                    251.59                       # Real time elapsed on the host (Second)
hostTickRate                                249744209                       # The number of ticks simulated per host second (ticks/s) ((Tick/Second))
hostMemory                                     680484                       # Number of bytes of host memory used (Byte)
simInsts                                    146988887                       # Number of instructions simulated (Count)
simOps                                      158889822                       # Number of ops (including micro ops) simulated (Count)
hostInstRate                                   584235                       # Simulator instruction rate (inst/s) ((Count/Second))
hostOpRate                                     631537                       # Simulator op (including micro ops) rate (op/s) ((Count/Second))
system.clk_domain.clock                          1000                       # Clock period in ticks (Tick)
system.cpu.numCycles                        125667351                       # Number of cpu cycles simulated (Cycle)
system.cpu.numWorkItemsStarted                      0                       # Number of work items this cpu started (Count)
system.cpu.numWorkItemsCompleted                    0                       # Number of work items this cpu completed (Count)
system.cpu.instsAdded                       170548634                       # Number of instructions added to the IQ (excludes non-spec) (Count)
system.cpu.nonSpecInstsAdded                   196982                       # Number of non-speculative instructions added to the IQ (Count)
system.cpu.instsIssued                      169818664                       # Number of instructions issued (Count)
system.cpu.squashedInstsIssued                 290282                       # Number of squashed instructions issued (Count)
system.cpu.squashedInstsExamined             11855793                       # Number of squashed instructions iterated over during squash; mainly for profiling (Count)
system.cpu.squashedOperandsExamined           8700807                       # Number of squashed operands that are examined and possibly removed from graph (Count)
system.cpu.squashedNonSpecRemoved                 165                       # Number of squashed non-spec instructions that were removed (Count)
system.cpu.numIssuedDist::samples           123025387                       # Number of insts issued each cycle (Count)
system.cpu.numIssuedDist::mean               1.380355                       # Number of insts issued each cycle (Count)
system.cpu.numIssuedDist::stdev              1.835219                       # Number of insts issued each cycle (Count)
system.cpu.numIssuedDist::underflows                0      0.00%      0.00% # Number of insts issued each cycle (Count)
system.cpu.numIssuedDist::0                  60777278     49.40%     49.40% # Number of insts issued each cycle (Count)
system.cpu.numIssuedDist::1                  19207434     15.61%     65.01% # Number of insts issued each cycle (Count)
system.cpu.numIssuedDist::2                  13999680     11.38%     76.39% # Number of insts issued each cycle (Count)
system.cpu.numIssuedDist::3                  11654571      9.47%     85.87% # Number of insts issued each cycle (Count)
system.cpu.numIssuedDist::4                   8254436      6.71%     92.58% # Number of insts issued each cycle (Count)
system.cpu.numIssuedDist::5                   3834644      3.12%     95.69% # Number of insts issued each cycle (Count)
system.cpu.numIssuedDist::6                   2760976      2.24%     97.94% # Number of insts issued each cycle (Count)
system.cpu.numIssuedDist::7                   1399607      1.14%     99.08% # Number of insts issued each cycle (Count)
system.cpu.numIssuedDist::8                   1136761      0.92%    100.00% # Number of insts issued each cycle (Count)
system.cpu.numIssuedDist::overflows                 0      0.00%    100.00% # Number of insts issued each cycle (Count)
system.cpu.numIssuedDist::min_value                 0                       # Number of insts issued each cycle (Count)
system.cpu.numIssuedDist::max_value                 8                       # Number of insts issued each cycle (Count)
system.cpu.numIssuedDist::total             123025387                       # Number of insts issued each cycle (Count)
system.cpu.statFuBusy::No_OpClass                   0      0.00%      0.00% # attempts to use FU when none available (Count)
system.cpu.statFuBusy::IntAlu                  395994     12.29%     12.29% # attempts to use FU when none available (Count)
system.cpu.statFuBusy::IntMult                 249404      7.74%     20.03% # attempts to use FU when none available (Count)
system.cpu.statFuBusy::IntDiv                       0      0.00%     20.03% # attempts to use FU when none available (Count)
system.cpu.statFuBusy::FloatAdd                     0      0.00%     20.03% # attempts to use FU when none available (Count)
system.cpu.statFuBusy::FloatCmp                     0      0.00%     20.03% # attempts to use FU when none available (Count)
system.cpu.statFuBusy::FloatCvt                     0      0.00%     20.03% # attempts to use FU when none available (Count)
system.cpu.statFuBusy::FloatMult                    0      0.00%     20.03% # attempts to use FU when none available (Count)
system.cpu.statFuBusy::FloatMultAcc                 0      0.00%     20.03% # attempts to use FU when none available (Count)
system.cpu.statFuBusy::FloatDiv                     0      0.00%     20.03% # attempts to use FU when none available (Count)
system.cpu.statFuBusy::FloatMisc                    0      0.00%     20.03% # attempts to use FU when none available (Count)
system.cpu.statFuBusy::FloatSqrt                    0      0.00%     20.03% # attempts to use FU when none available (Count)
system.cpu.statFuBusy::SimdAdd                      0      0.00%     20.03% # attempts to use FU when none available (Count)
system.cpu.statFuBusy::SimdAddAcc                   0      0.00%     20.03% # attempts to use FU when none available (Count)
system.cpu.statFuBusy::SimdAlu                      1      0.00%     20.03% # attempts to use FU when none available (Count)
system.cpu.statFuBusy::SimdCmp                      6      0.00%     20.03% # attempts to use FU when none available (Count)
system.cpu.statFuBusy::SimdCvt                      0      0.00%     20.03% # attempts to use FU when none available (Count)
system.cpu.statFuBusy::SimdMisc                     0      0.00%     20.03% # attempts to use FU when none available (Count)
system.cpu.statFuBusy::SimdMult                     0      0.00%     20.03% # attempts to use FU when none available (Count)
system.cpu.statFuBusy::SimdMultAcc                  0      0.00%     20.03% # attempts to use FU when none available (Count)
system.cpu.statFuBusy::SimdShift                    0      0.00%     20.03% # attempts to use FU when none available (Count)
system.cpu.statFuBusy::SimdShiftAcc                 0      0.00%     20.03% # attempts to use FU when none available (Count)
system.cpu.statFuBusy::SimdDiv                      0      0.00%     20.03% # attempts to use FU when none available (Count)
system.cpu.statFuBusy::SimdSqrt                     0      0.00%     20.03% # attempts to use FU when none available (Count)
system.cpu.statFuBusy::SimdFloatAdd                 0      0.00%     20.03% # attempts to use FU when none available (Count)
system.cpu.statFuBusy::SimdFloatAlu                 0      0.00%     20.03% # attempts to use FU when none available (Count)
system.cpu.statFuBusy::SimdFloatCmp                 0      0.00%     20.03% # attempts to use FU when none available (Count)
system.cpu.statFuBusy::SimdFloatCvt                 0      0.00%     20.03% # attempts to use FU when none available (Count)
system.cpu.statFuBusy::SimdFloatDiv                 0      0.00%     20.03% # attempts to use FU when none available (Count)
system.cpu.statFuBusy::SimdFloatMisc                0      0.00%     20.03% # attempts to use FU when none available (Count)
system.cpu.statFuBusy::SimdFloatMult                0      0.00%     20.03% # attempts to use FU when none available (Count)
system.cpu.statFuBusy::SimdFloatMultAcc             0      0.00%     20.03% # attempts to use FU when none available (Count)
system.cpu.statFuBusy::SimdFloatSqrt                0      0.00%     20.03% # attempts to use FU when none available (Count)
system.cpu.statFuBusy::SimdReduceAdd                0      0.00%     20.03% # attempts to use FU when none available (Count)
system.cpu.statFuBusy::SimdReduceAlu                0      0.00%     20.03% # attempts to use FU when none available (Count)
system.cpu.statFuBusy::SimdReduceCmp                0      0.00%     20.03% # attempts to use FU when none available (Count)
system.cpu.statFuBusy::SimdFloatReduceAdd            0      0.00%     20.03% # attempts to use FU when none available (Count)
system.cpu.statFuBusy::SimdFloatReduceCmp            0      0.00%     20.03% # attempts to use FU when none available (Count)
system.cpu.statFuBusy::SimdAes                      0      0.00%     20.03% # attempts to use FU when none available (Count)
system.cpu.statFuBusy::SimdAesMix                   0      0.00%     20.03% # attempts to use FU when none available (Count)
system.cpu.statFuBusy::SimdSha1Hash                 0      0.00%     20.03% # attempts to use FU when none available (Count)
system.cpu.statFuBusy::SimdSha1Hash2                0      0.00%     20.03% # attempts to use FU when none available (Count)
system.cpu.statFuBusy::SimdSha256Hash               0      0.00%     20.03% # attempts to use FU when none available (Count)
system.cpu.statFuBusy::SimdSha256Hash2              0      0.00%     20.03% # attempts to use FU when none available (Count)
system.cpu.statFuBusy::SimdShaSigma2                0      0.00%     20.03% # attempts to use FU when none available (Count)
system.cpu.statFuBusy::SimdShaSigma3                0      0.00%     20.03% # attempts to use FU when none available (Count)
system.cpu.statFuBusy::SimdPredAlu                  0      0.00%     20.03% # attempts to use FU when none available (Count)
system.cpu.statFuBusy::MemRead                1383443     42.93%     62.96% # attempts to use FU when none available (Count)
system.cpu.statFuBusy::MemWrite               1193694     37.04%    100.00% # attempts to use FU when none available (Count)
system.cpu.statFuBusy::FloatMemRead                 0      0.00%    100.00% # attempts to use FU when none available (Count)
system.cpu.statFuBusy::FloatMemWrite                0      0.00%    100.00% # attempts to use FU when none available (Count)
system.cpu.statFuBusy::IprAccess                    0      0.00%    100.00% # attempts to use FU when none available (Count)
system.cpu.statFuBusy::InstPrefetch                 0      0.00%    100.00% # attempts to use FU when none available (Count)
system.cpu.statIssuedInstType_0::No_OpClass       131153      0.08%      0.08% # Number of instructions issued per FU type, per thread (Count)
system.cpu.statIssuedInstType_0::IntAlu     102145292     60.15%     60.23% # Number of instructions issued per FU type, per thread (Count)
system.cpu.statIssuedInstType_0::IntMult      1658003      0.98%     61.20% # Number of instructions issued per FU type, per thread (Count)
system.cpu.statIssuedInstType_0::IntDiv        330431      0.19%     61.40% # Number of instructions issued per FU type, per thread (Count)
system.cpu.statIssuedInstType_0::FloatAdd      2103706      1.24%     62.64% # Number of instructions issued per FU type, per thread (Count)
system.cpu.statIssuedInstType_0::FloatCmp        32768      0.02%     62.66% # Number of instructions issued per FU type, per thread (Count)
system.cpu.statIssuedInstType_0::FloatCvt            0      0.00%     62.66% # Number of instructions issued per FU type, per thread (Count)
system.cpu.statIssuedInstType_0::FloatMult      2097152      1.23%     63.89% # Number of instructions issued per FU type, per thread (Count)
system.cpu.statIssuedInstType_0::FloatMultAcc            0      0.00%     63.89% # Number of instructions issued per FU type, per thread (Count)
system.cpu.statIssuedInstType_0::FloatDiv            0      0.00%     63.89% # Number of instructions issued per FU type, per thread (Count)
system.cpu.statIssuedInstType_0::FloatMisc        75483      0.04%     63.94% # Number of instructions issued per FU type, per thread (Count)
system.cpu.statIssuedInstType_0::FloatSqrt            0      0.00%     63.94% # Number of instructions issued per FU type, per thread (Count)
system.cpu.statIssuedInstType_0::SimdAdd        65579      0.04%     63.97% # Number of instructions issued per FU type, per thread (Count)
system.cpu.statIssuedInstType_0::SimdAddAcc            0      0.00%     63.97% # Number of instructions issued per FU type, per thread (Count)
system.cpu.statIssuedInstType_0::SimdAlu       131144      0.08%     64.05% # Number of instructions issued per FU type, per thread (Count)
system.cpu.statIssuedInstType_0::SimdCmp       131140      0.08%     64.13% # Number of instructions issued per FU type, per thread (Count)
system.cpu.statIssuedInstType_0::SimdCvt            0      0.00%     64.13% # Number of instructions issued per FU type, per thread (Count)
system.cpu.statIssuedInstType_0::SimdMisc       124559      0.07%     64.20% # Number of instructions issued per FU type, per thread (Count)
system.cpu.statIssuedInstType_0::SimdMult            0      0.00%     64.20% # Number of instructions issued per FU type, per thread (Count)
system.cpu.statIssuedInstType_0::SimdMultAcc            0      0.00%     64.20% # Number of instructions issued per FU type, per thread (Count)
system.cpu.statIssuedInstType_0::SimdShift            0      0.00%     64.20% # Number of instructions issued per FU type, per thread (Count)
system.cpu.statIssuedInstType_0::SimdShiftAcc            0      0.00%     64.20% # Number of instructions issued per FU type, per thread (Count)
system.cpu.statIssuedInstType_0::SimdDiv            0      0.00%     64.20% # Number of instructions issued per FU type, per thread (Count)
system.cpu.statIssuedInstType_0::SimdSqrt            0      0.00%     64.20% # Number of instructions issued per FU type, per thread (Count)
system.cpu.statIssuedInstType_0::SimdFloatAdd            0      0.00%     64.20% # Number of instructions issued per FU type, per thread (Count)
system.cpu.statIssuedInstType_0::SimdFloatAlu            0      0.00%     64.20% # Number of instructions issued per FU type, per thread (Count)
system.cpu.statIssuedInstType_0::SimdFloatCmp            0      0.00%     64.20% # Number of instructions issued per FU type, per thread (Count)
system.cpu.statIssuedInstType_0::SimdFloatCvt            0      0.00%     64.20% # Number of instructions issued per FU type, per thread (Count)
system.cpu.statIssuedInstType_0::SimdFloatDiv            0      0.00%     64.20% # Number of instructions issued per FU type, per thread (Count)
system.cpu.statIssuedInstType_0::SimdFloatMisc            0      0.00%     64.20% # Number of instructions issued per FU type, per thread (Count)
system.cpu.statIssuedInstType_0::SimdFloatMult            0      0.00%     64.20% # Number of instructions issued per FU type, per thread (Count)
system.cpu.statIssuedInstType_0::SimdFloatMultAcc            0      0.00%     64.20% # Number of instructions issued per FU type, per thread (Count)
system.cpu.statIssuedInstType_0::SimdFloatSqrt            0      0.00%     64.20% # Number of instructions issued per FU type, per thread (Count)
system.cpu.statIssuedInstType_0::SimdReduceAdd            0      0.00%     64.20% # Number of instructions issued per FU type, per thread (Count)
system.cpu.statIssuedInstType_0::SimdReduceAlu            0      0.00%     64.20% # Number of instructions issued per FU type, per thread (Count)
system.cpu.statIssuedInstType_0::SimdReduceCmp            0      0.00%     64.20% # Number of instructions issued per FU type, per thread (Count)
system.cpu.statIssuedInstType_0::SimdFloatReduceAdd            0      0.00%     64.20% # Number of instructions issued per FU type, per thread (Count)
system.cpu.statIssuedInstType_0::SimdFloatReduceCmp            0      0.00%     64.20% # Number of instructions issued per FU type, per thread (Count)
system.cpu.statIssuedInstType_0::SimdAes            0      0.00%     64.20% # Number of instructions issued per FU type, per thread (Count)
system.cpu.statIssuedInstType_0::SimdAesMix            0      0.00%     64.20% # Number of instructions issued per FU type, per thread (Count)
system.cpu.statIssuedInstType_0::SimdSha1Hash            0      0.00%     64.20% # Number of instructions issued per FU type, per thread (Count)
system.cpu.statIssuedInstType_0::SimdSha1Hash2            0      0.00%     64.20% # Number of instructions issued per FU type, per thread (Count)
system.cpu.statIssuedInstType_0::SimdSha256Hash            0      0.00%     64.20% # Number of instructions issued per FU type, per thread (Count)
system.cpu.statIssuedInstType_0::SimdSha256Hash2            0      0.00%     64.20% # Number of instructions issued per FU type, per thread (Count)
system.cpu.statIssuedInstType_0::SimdShaSigma2            0      0.00%     64.20% # Number of instructions issued per FU type, per thread (Count)
system.cpu.statIssuedInstType_0::SimdShaSigma3            0      0.00%     64.20% # Number of instructions issued per FU type, per thread (Count)
system.cpu.statIssuedInstType_0::SimdPredAlu            0      0.00%     64.20% # Number of instructions issued per FU type, per thread (Count)
system.cpu.statIssuedInstType_0::MemRead     40606735     23.91%     88.11% # Number of instructions issued per FU type, per thread (Count)
system.cpu.statIssuedInstType_0::MemWrite     20185519     11.89%    100.00% # Number of instructions issued per FU type, per thread (Count)
system.cpu.statIssuedInstType_0::FloatMemRead            0      0.00%    100.00% # Number of instructions issued per FU type, per thread (Count)
system.cpu.statIssuedInstType_0::FloatMemWrite            0      0.00%    100.00% # Number of instructions issued per FU type, per thread (Count)
system.cpu.statIssuedInstType_0::IprAccess            0      0.00%    100.00% # Number of instructions issued per FU type, per thread (Count)
system.cpu.statIssuedInstType_0::InstPrefetch            0      0.00%    100.00% # Number of instructions issued per FU type, per thread (Count)
system.cpu.statIssuedInstType_0::total      169818664                       # Number of instructions issued per FU type, per thread (Count)
system.cpu.issueRate                         1.351335                       # Inst issue rate ((Count/Cycle))
system.cpu.fuBusy                             3222542                       # FU busy when requested (Count)
system.cpu.fuBusyRate                        0.018976                       # FU busy rate (busy events/executed inst) ((Count/Count))
system.cpu.intInstQueueReads                435987939                       # Number of integer instruction queue reads (Count)
system.cpu.intInstQueueWrites               166520825                       # Number of integer instruction queue writes (Count)
system.cpu.intInstQueueWakeupAccesses       151545922                       # Number of integer instruction queue wakeup accesses (Count)
system.cpu.fpInstQueueReads                         0                       # Number of floating instruction queue reads (Count)
system.cpu.fpInstQueueWrites                        0                       # Number of floating instruction queue writes (Count)
system.cpu.fpInstQueueWakeupAccesses                0                       # Number of floating instruction queue wakeup accesses (Count)
system.cpu.vecInstQueueReads                 30187600                       # Number of vector instruction queue reads (Count)
system.cpu.vecInstQueueWrites                16168987                       # Number of vector instruction queue writes (Count)
system.cpu.vecInstQueueWakeupAccesses        14544613                       # Number of vector instruction queue wakeup accesses (Count)
system.cpu.intAluAccesses                   157780909                       # Number of integer alu accesses (Count)
system.cpu.fpAluAccesses                            0                       # Number of floating point alu accesses (Count)
system.cpu.vecAluAccesses                    15129144                       # Number of vector alu accesses (Count)
system.cpu.numInsts                         168911424                       # Number of executed instructions (Count)
system.cpu.numLoadInsts                      40305606                       # Number of load instructions executed (Count)
system.cpu.numSquashedInsts                    907240                       # Number of squashed instructions skipped in execute (Count)
system.cpu.numSwp                                   0                       # Number of swp insts executed (Count)
system.cpu.numNop                              132029                       # Number of nop insts executed (Count)
system.cpu.numRefs                           60247242                       # Number of memory reference insts executed (Count)
system.cpu.numBranches                       23304380                       # Number of branches executed (Count)
system.cpu.numStoreInsts                     19941636                       # Number of stores executed (Count)
system.cpu.numRate                           1.344115                       # Inst execution rate ((Count/Cycle))
system.cpu.timesIdled                          138873                       # Number of times that the entire CPU went into an idle state and unscheduled itself (Count)
system.cpu.idleCycles                         2641964                       # Total number of cycles that the CPU has spent unscheduled due to idling (Cycle)
system.cpu.committedInsts                   146988887                       # Number of Instructions Simulated (Count)
system.cpu.committedOps                     158889822                       # Number of Ops (including micro ops) Simulated (Count)
system.cpu.cpi                               0.854945                       # CPI: Cycles Per Instruction ((Cycle/Count))
system.cpu.totalCpi                          0.854945                       # CPI: Total CPI of All Threads ((Cycle/Count))
system.cpu.ipc                               1.169666                       # IPC: Instructions Per Cycle ((Count/Cycle))
system.cpu.totalIpc                          1.169666                       # IPC: Total IPC of All Threads ((Count/Cycle))
system.cpu.intRegfileReads                  194528874                       # Number of integer regfile reads (Count)
system.cpu.intRegfileWrites                 116607823                       # Number of integer regfile writes (Count)
system.cpu.vecRegfileReads                   12552918                       # number of vector regfile reads (Count)
system.cpu.vecRegfileWrites                  11208902                       # number of vector regfile writes (Count)
system.cpu.ccRegfileReads                    40512558                       # number of cc regfile reads (Count)
system.cpu.ccRegfileWrites                   40094246                       # number of cc regfile writes (Count)
system.cpu.miscRegfileReads                 352466489                       # number of misc regfile reads (Count)
system.cpu.miscRegfileWrites                  4446766                       # number of misc regfile writes (Count)
system.cpu.MemDepUnit__0.insertedLoads       38762962                       # Number of loads inserted to the mem dependence unit. (Count)
system.cpu.MemDepUnit__0.insertedStores      21012425                       # Number of stores inserted to the mem dependence unit. (Count)
system.cpu.MemDepUnit__0.conflictingLoads     11170021                       # Number of conflicting loads. (Count)
system.cpu.MemDepUnit__0.conflictingStores      4013267                       # Number of conflicting stores. (Count)
system.cpu.MemDepUnit__1.insertedLoads              0                       # Number of loads inserted to the mem dependence unit. (Count)
system.cpu.MemDepUnit__1.insertedStores             0                       # Number of stores inserted to the mem dependence unit. (Count)
system.cpu.MemDepUnit__1.conflictingLoads            0                       # Number of conflicting loads. (Count)
system.cpu.MemDepUnit__1.conflictingStores            0                       # Number of conflicting stores. (Count)
system.cpu.MemDepUnit__2.insertedLoads              0                       # Number of loads inserted to the mem dependence unit. (Count)
system.cpu.MemDepUnit__2.insertedStores             0                       # Number of stores inserted to the mem dependence unit. (Count)
system.cpu.MemDepUnit__2.conflictingLoads            0                       # Number of conflicting loads. (Count)
system.cpu.MemDepUnit__2.conflictingStores            0                       # Number of conflicting stores. (Count)
system.cpu.MemDepUnit__3.insertedLoads              0                       # Number of loads inserted to the mem dependence unit. (Count)
system.cpu.MemDepUnit__3.insertedStores             0                       # Number of stores inserted to the mem dependence unit. (Count)
system.cpu.MemDepUnit__3.conflictingLoads            0                       # Number of conflicting loads. (Count)
system.cpu.MemDepUnit__3.conflictingStores            0                       # Number of conflicting stores. (Count)
system.cpu.branchPred.lookups                25130096                       # Number of BP lookups (Count)
system.cpu.branchPred.condPredicted          17445271                       # Number of conditional branches predicted (Count)
system.cpu.branchPred.condIncorrect            305318                       # Number of conditional branches incorrect (Count)
system.cpu.branchPred.BTBLookups             12580414                       # Number of BTB lookups (Count)
system.cpu.branchPred.BTBHits                12478770                       # Number of BTB hits (Count)
system.cpu.branchPred.BTBHitRatio            0.991920                       # BTB Hit Ratio (Ratio)
system.cpu.branchPred.RASUsed                 1490385                       # Number of times the RAS was used to get a target. (Count)
system.cpu.branchPred.RASIncorrect                 25                       # Number of incorrect RAS predictions. (Count)
system.cpu.branchPred.indirectLookups          268495                       # Number of indirect predictor lookups. (Count)
system.cpu.branchPred.indirectHits             266763                       # Number of indirect target hits. (Count)
system.cpu.branchPred.indirectMisses             1732                       # Number of indirect misses. (Count)
system.cpu.branchPred.indirectMispredicted          199                       # Number of mispredicted indirect branches. (Count)
system.cpu.commit.commitSquashedInsts        11878167                       # The number of squashed insts skipped by commit (Count)
system.cpu.commit.commitNonSpecStalls          196817                       # The number of times commit has been forced to stall to communicate backwards (Count)
system.cpu.commit.branchMispredicts            278145                       # The number of times a branch was mispredicted (Count)
system.cpu.commit.numCommittedDist::samples    121376766                       # Number of insts commited each cycle (Count)
system.cpu.commit.numCommittedDist::mean     1.310027                       # Number of insts commited each cycle (Count)
system.cpu.commit.numCommittedDist::stdev     2.531805                       # Number of insts commited each cycle (Count)
system.cpu.commit.numCommittedDist::underflows            0      0.00%      0.00% # Number of insts commited each cycle (Count)
system.cpu.commit.numCommittedDist::0        81371911     67.04%     67.04% # Number of insts commited each cycle (Count)
system.cpu.commit.numCommittedDist::1        13297718     10.96%     78.00% # Number of insts commited each cycle (Count)
system.cpu.commit.numCommittedDist::2         6852037      5.65%     83.64% # Number of insts commited each cycle (Count)
system.cpu.commit.numCommittedDist::3         2685242      2.21%     85.85% # Number of insts commited each cycle (Count)
system.cpu.commit.numCommittedDist::4         1139504      0.94%     86.79% # Number of insts commited each cycle (Count)
system.cpu.commit.numCommittedDist::5          765651      0.63%     87.42% # Number of insts commited each cycle (Count)
system.cpu.commit.numCommittedDist::6         2732287      2.25%     89.67% # Number of insts commited each cycle (Count)
system.cpu.commit.numCommittedDist::7         1090029      0.90%     90.57% # Number of insts commited each cycle (Count)
system.cpu.commit.numCommittedDist::8        11442387      9.43%    100.00% # Number of insts commited each cycle (Count)
system.cpu.commit.numCommittedDist::overflows            0      0.00%    100.00% # Number of insts commited each cycle (Count)
system.cpu.commit.numCommittedDist::min_value            0                       # Number of insts commited each cycle (Count)
system.cpu.commit.numCommittedDist::max_value            8                       # Number of insts commited each cycle (Count)
system.cpu.commit.numCommittedDist::total    121376766                       # Number of insts commited each cycle (Count)
system.cpu.commit.instsCommitted            147105875                       # Number of instructions committed (Count)
system.cpu.commit.opsCommitted              159006810                       # Number of ops (including micro ops) committed (Count)
system.cpu.commit.memRefs                    55047444                       # Number of memory references committed (Count)
system.cpu.commit.loads                      36608731                       # Number of loads committed (Count)
system.cpu.commit.amos                          98358                       # Number of atomic instructions committed (Count)
system.cpu.commit.membars                       98368                       # Number of memory barriers committed (Count)
system.cpu.commit.branches                   22385845                       # Number of branches committed (Count)
system.cpu.commit.vectorInstructions         14159255                       # Number of committed Vector instructions. (Count)
system.cpu.commit.floating                          0                       # Number of committed floating point instructions. (Count)
system.cpu.commit.integer                   139388389                       # Number of committed integer instructions. (Count)
system.cpu.commit.functionCalls               1353088                       # Number of function calls committed. (Count)
system.cpu.commit.committedInstType_0::No_OpClass       131141      0.08%      0.08% # Class of committed instruction (Count)
system.cpu.commit.committedInstType_0::IntAlu     97085614     61.06%     61.14% # Class of committed instruction (Count)
system.cpu.commit.committedInstType_0::IntMult      1657523      1.04%     62.18% # Class of committed instruction (Count)
system.cpu.commit.committedInstType_0::IntDiv       330368      0.21%     62.39% # Class of committed instruction (Count)
system.cpu.commit.committedInstType_0::FloatAdd      2103705      1.32%     63.71% # Class of committed instruction (Count)
system.cpu.commit.committedInstType_0::FloatCmp        32768      0.02%     63.73% # Class of committed instruction (Count)
system.cpu.commit.committedInstType_0::FloatCvt            0      0.00%     63.73% # Class of committed instruction (Count)
system.cpu.commit.committedInstType_0::FloatMult      2097152      1.32%     65.05% # Class of committed instruction (Count)
system.cpu.commit.committedInstType_0::FloatMultAcc            0      0.00%     65.05% # Class of committed instruction (Count)
system.cpu.commit.committedInstType_0::FloatDiv            0      0.00%     65.05% # Class of committed instruction (Count)
system.cpu.commit.committedInstType_0::FloatMisc        68812      0.04%     65.10% # Class of committed instruction (Count)
system.cpu.commit.committedInstType_0::FloatSqrt            0      0.00%     65.10% # Class of committed instruction (Count)
system.cpu.commit.committedInstType_0::SimdAdd        65556      0.04%     65.14% # Class of committed instruction (Count)
system.cpu.commit.committedInstType_0::SimdAddAcc            0      0.00%     65.14% # Class of committed instruction (Count)
system.cpu.commit.committedInstType_0::SimdAlu       131098      0.08%     65.22% # Class of committed instruction (Count)
system.cpu.commit.committedInstType_0::SimdCmp       131092      0.08%     65.30% # Class of committed instruction (Count)
system.cpu.commit.committedInstType_0::SimdCvt            0      0.00%     65.30% # Class of committed instruction (Count)
system.cpu.commit.committedInstType_0::SimdMisc       124537      0.08%     65.38% # Class of committed instruction (Count)
system.cpu.commit.committedInstType_0::SimdMult            0      0.00%     65.38% # Class of committed instruction (Count)
system.cpu.commit.committedInstType_0::SimdMultAcc            0      0.00%     65.38% # Class of committed instruction (Count)
system.cpu.commit.committedInstType_0::SimdShift            0      0.00%     65.38% # Class of committed instruction (Count)
system.cpu.commit.committedInstType_0::SimdShiftAcc            0      0.00%     65.38% # Class of committed instruction (Count)
system.cpu.commit.committedInstType_0::SimdDiv            0      0.00%     65.38% # Class of committed instruction (Count)
system.cpu.commit.committedInstType_0::SimdSqrt            0      0.00%     65.38% # Class of committed instruction (Count)
system.cpu.commit.committedInstType_0::SimdFloatAdd            0      0.00%     65.38% # Class of committed instruction (Count)
system.cpu.commit.committedInstType_0::SimdFloatAlu            0      0.00%     65.38% # Class of committed instruction (Count)
system.cpu.commit.committedInstType_0::SimdFloatCmp            0      0.00%     65.38% # Class of committed instruction (Count)
system.cpu.commit.committedInstType_0::SimdFloatCvt            0      0.00%     65.38% # Class of committed instruction (Count)
system.cpu.commit.committedInstType_0::SimdFloatDiv            0      0.00%     65.38% # Class of committed instruction (Count)
system.cpu.commit.committedInstType_0::SimdFloatMisc            0      0.00%     65.38% # Class of committed instruction (Count)
system.cpu.commit.committedInstType_0::SimdFloatMult            0      0.00%     65.38% # Class of committed instruction (Count)
system.cpu.commit.committedInstType_0::SimdFloatMultAcc            0      0.00%     65.38% # Class of committed instruction (Count)
system.cpu.commit.committedInstType_0::SimdFloatSqrt            0      0.00%     65.38% # Class of committed instruction (Count)
system.cpu.commit.committedInstType_0::SimdReduceAdd            0      0.00%     65.38% # Class of committed instruction (Count)
system.cpu.commit.committedInstType_0::SimdReduceAlu            0      0.00%     65.38% # Class of committed instruction (Count)
system.cpu.commit.committedInstType_0::SimdReduceCmp            0      0.00%     65.38% # Class of committed instruction (Count)
system.cpu.commit.committedInstType_0::SimdFloatReduceAdd            0      0.00%     65.38% # Class of committed instruction (Count)
system.cpu.commit.committedInstType_0::SimdFloatReduceCmp            0      0.00%     65.38% # Class of committed instruction (Count)
system.cpu.commit.committedInstType_0::SimdAes            0      0.00%     65.38% # Class of committed instruction (Count)
system.cpu.commit.committedInstType_0::SimdAesMix            0      0.00%     65.38% # Class of committed instruction (Count)
system.cpu.commit.committedInstType_0::SimdSha1Hash            0      0.00%     65.38% # Class of committed instruction (Count)
system.cpu.commit.committedInstType_0::SimdSha1Hash2            0      0.00%     65.38% # Class of committed instruction (Count)
system.cpu.commit.committedInstType_0::SimdSha256Hash            0      0.00%     65.38% # Class of committed instruction (Count)
system.cpu.commit.committedInstType_0::SimdSha256Hash2            0      0.00%     65.38% # Class of committed instruction (Count)
system.cpu.commit.committedInstType_0::SimdShaSigma2            0      0.00%     65.38% # Class of committed instruction (Count)
system.cpu.commit.committedInstType_0::SimdShaSigma3            0      0.00%     65.38% # Class of committed instruction (Count)
system.cpu.commit.committedInstType_0::SimdPredAlu            0      0.00%     65.38% # Class of committed instruction (Count)
system.cpu.commit.committedInstType_0::MemRead     36608731     23.02%     88.40% # Class of committed instruction (Count)
system.cpu.commit.committedInstType_0::MemWrite     18438713     11.60%    100.00% # Class of committed instruction (Count)
system.cpu.commit.committedInstType_0::FloatMemRead            0      0.00%    100.00% # Class of committed instruction (Count)
system.cpu.commit.committedInstType_0::FloatMemWrite            0      0.00%    100.00% # Class of committed instruction (Count)
system.cpu.commit.committedInstType_0::IprAccess            0      0.00%    100.00% # Class of committed instruction (Count)
system.cpu.commit.committedInstType_0::InstPrefetch            0      0.00%    100.00% # Class of committed instruction (Count)
system.cpu.commit.committedInstType_0::total    159006810                       # Class of committed instruction (Count)
system.cpu.commit.commitEligibleSamples      11442387                       # number cycles where commit BW limit reached (Cycle)
system.cpu.dcache.demandHits::cpu.data       41365511                       # number of demand (read+write) hits (Count)
system.cpu.dcache.demandHits::total          41365511                       # number of demand (read+write) hits (Count)
system.cpu.dcache.overallHits::cpu.data      41467963                       # number of overall hits (Count)
system.cpu.dcache.overallHits::total         41467963                       # number of overall hits (Count)
system.cpu.dcache.demandMisses::cpu.data      2186437                       # number of demand (read+write) misses (Count)
system.cpu.dcache.demandMisses::total         2186437                       # number of demand (read+write) misses (Count)
system.cpu.dcache.overallMisses::cpu.data      2186442                       # number of overall misses (Count)
system.cpu.dcache.overallMisses::total        2186442                       # number of overall misses (Count)
system.cpu.dcache.demandMissLatency::cpu.data 126903678108                       # number of demand (read+write) miss ticks (Tick)
system.cpu.dcache.demandMissLatency::total 126903678108                       # number of demand (read+write) miss ticks (Tick)
system.cpu.dcache.overallMissLatency::cpu.data 126903678108                       # number of overall miss ticks (Tick)
system.cpu.dcache.overallMissLatency::total 126903678108                       # number of overall miss ticks (Tick)
system.cpu.dcache.demandAccesses::cpu.data     43551948                       # number of demand (read+write) accesses (Count)
system.cpu.dcache.demandAccesses::total      43551948                       # number of demand (read+write) accesses (Count)
system.cpu.dcache.overallAccesses::cpu.data     43654405                       # number of overall (read+write) accesses (Count)
system.cpu.dcache.overallAccesses::total     43654405                       # number of overall (read+write) accesses (Count)
system.cpu.dcache.demandMissRate::cpu.data     0.050203                       # miss rate for demand accesses (Ratio)
system.cpu.dcache.demandMissRate::total      0.050203                       # miss rate for demand accesses (Ratio)
system.cpu.dcache.overallMissRate::cpu.data     0.050085                       # miss rate for overall accesses (Ratio)
system.cpu.dcache.overallMissRate::total     0.050085                       # miss rate for overall accesses (Ratio)
system.cpu.dcache.demandAvgMissLatency::cpu.data 58041.314755                       # average overall miss latency ((Cycle/Count))
system.cpu.dcache.demandAvgMissLatency::total 58041.314755                       # average overall miss latency ((Cycle/Count))
system.cpu.dcache.overallAvgMissLatency::cpu.data 58041.182024                       # average overall miss latency ((Cycle/Count))
system.cpu.dcache.overallAvgMissLatency::total 58041.182024                       # average overall miss latency ((Cycle/Count))
system.cpu.dcache.blockedCycles::no_mshrs     40152368                       # number of cycles access was blocked (Cycle)
system.cpu.dcache.blockedCycles::no_targets            0                       # number of cycles access was blocked (Cycle)
system.cpu.dcache.blockedCauses::no_mshrs       813938                       # number of times access was blocked (Count)
system.cpu.dcache.blockedCauses::no_targets            0                       # number of times access was blocked (Count)
system.cpu.dcache.avgBlocked::no_mshrs      49.330991                       # average number of cycles each access was blocked ((Cycle/Count))
system.cpu.dcache.avgBlocked::no_targets          nan                       # average number of cycles each access was blocked ((Cycle/Count))
system.cpu.dcache.writebacks::writebacks        21215                       # number of writebacks (Count)
system.cpu.dcache.writebacks::total             21215                       # number of writebacks (Count)
system.cpu.dcache.demandMshrHits::cpu.data        44951                       # number of demand (read+write) MSHR hits (Count)
system.cpu.dcache.demandMshrHits::total         44951                       # number of demand (read+write) MSHR hits (Count)
system.cpu.dcache.overallMshrHits::cpu.data        44951                       # number of overall MSHR hits (Count)
system.cpu.dcache.overallMshrHits::total        44951                       # number of overall MSHR hits (Count)
system.cpu.dcache.demandMshrMisses::cpu.data      2141486                       # number of demand (read+write) MSHR misses (Count)
system.cpu.dcache.demandMshrMisses::total      2141486                       # number of demand (read+write) MSHR misses (Count)
system.cpu.dcache.overallMshrMisses::cpu.data      2141491                       # number of overall MSHR misses (Count)
system.cpu.dcache.overallMshrMisses::total      2141491                       # number of overall MSHR misses (Count)
system.cpu.dcache.demandMshrMissLatency::cpu.data 123176686653                       # number of demand (read+write) MSHR miss ticks (Tick)
system.cpu.dcache.demandMshrMissLatency::total 123176686653                       # number of demand (read+write) MSHR miss ticks (Tick)
system.cpu.dcache.overallMshrMissLatency::cpu.data 123177023153                       # number of overall MSHR miss ticks (Tick)
system.cpu.dcache.overallMshrMissLatency::total 123177023153                       # number of overall MSHR miss ticks (Tick)
system.cpu.dcache.demandMshrMissRate::cpu.data     0.049171                       # mshr miss ratio for demand accesses (Ratio)
system.cpu.dcache.demandMshrMissRate::total     0.049171                       # mshr miss ratio for demand accesses (Ratio)
system.cpu.dcache.overallMshrMissRate::cpu.data     0.049056                       # mshr miss ratio for overall accesses (Ratio)
system.cpu.dcache.overallMshrMissRate::total     0.049056                       # mshr miss ratio for overall accesses (Ratio)
system.cpu.dcache.demandAvgMshrMissLatency::cpu.data 57519.258428                       # average overall mshr miss latency ((Cycle/Count))
system.cpu.dcache.demandAvgMshrMissLatency::total 57519.258428                       # average overall mshr miss latency ((Cycle/Count))
system.cpu.dcache.overallAvgMshrMissLatency::cpu.data 57519.281264                       # average overall mshr miss latency ((Cycle/Count))
system.cpu.dcache.overallAvgMshrMissLatency::total 57519.281264                       # average overall mshr miss latency ((Cycle/Count))
system.cpu.dcache.replacements                2140470                       # number of replacements (Count)
system.cpu.dcache.LoadLockedReq.hits::cpu.data           33                       # number of LoadLockedReq hits (Count)
system.cpu.dcache.LoadLockedReq.hits::total           33                       # number of LoadLockedReq hits (Count)
system.cpu.dcache.LoadLockedReq.misses::cpu.data            6                       # number of LoadLockedReq misses (Count)
system.cpu.dcache.LoadLockedReq.misses::total            6                       # number of LoadLockedReq misses (Count)
system.cpu.dcache.LoadLockedReq.missLatency::cpu.data       605500                       # number of LoadLockedReq miss ticks (Tick)
system.cpu.dcache.LoadLockedReq.missLatency::total       605500                       # number of LoadLockedReq miss ticks (Tick)
system.cpu.dcache.LoadLockedReq.accesses::cpu.data           39                       # number of LoadLockedReq accesses(hits+misses) (Count)
system.cpu.dcache.LoadLockedReq.accesses::total           39                       # number of LoadLockedReq accesses(hits+misses) (Count)
system.cpu.dcache.LoadLockedReq.missRate::cpu.data     0.153846                       # miss rate for LoadLockedReq accesses (Ratio)
system.cpu.dcache.LoadLockedReq.missRate::total     0.153846                       # miss rate for LoadLockedReq accesses (Ratio)
system.cpu.dcache.LoadLockedReq.avgMissLatency::cpu.data 100916.666667                       # average LoadLockedReq miss latency ((Tick/Count))
system.cpu.dcache.LoadLockedReq.avgMissLatency::total 100916.666667                       # average LoadLockedReq miss latency ((Tick/Count))
system.cpu.dcache.LoadLockedReq.mshrHits::cpu.data            3                       # number of LoadLockedReq MSHR hits (Count)
system.cpu.dcache.LoadLockedReq.mshrHits::total            3                       # number of LoadLockedReq MSHR hits (Count)
system.cpu.dcache.LoadLockedReq.mshrMisses::cpu.data            3                       # number of LoadLockedReq MSHR misses (Count)
system.cpu.dcache.LoadLockedReq.mshrMisses::total            3                       # number of LoadLockedReq MSHR misses (Count)
system.cpu.dcache.LoadLockedReq.mshrMissLatency::cpu.data       240500                       # number of LoadLockedReq MSHR miss ticks (Tick)
system.cpu.dcache.LoadLockedReq.mshrMissLatency::total       240500                       # number of LoadLockedReq MSHR miss ticks (Tick)
system.cpu.dcache.LoadLockedReq.mshrMissRate::cpu.data     0.076923                       # mshr miss rate for LoadLockedReq accesses (Ratio)
system.cpu.dcache.LoadLockedReq.mshrMissRate::total     0.076923                       # mshr miss rate for LoadLockedReq accesses (Ratio)
system.cpu.dcache.LoadLockedReq.avgMshrMissLatency::cpu.data 80166.666667                       # average LoadLockedReq mshr miss latency ((Tick/Count))
system.cpu.dcache.LoadLockedReq.avgMshrMissLatency::total 80166.666667                       # average LoadLockedReq mshr miss latency ((Tick/Count))
system.cpu.dcache.ReadReq.hits::cpu.data     23049201                       # number of ReadReq hits (Count)
system.cpu.dcache.ReadReq.hits::total        23049201                       # number of ReadReq hits (Count)
system.cpu.dcache.ReadReq.misses::cpu.data      2162394                       # number of ReadReq misses (Count)
system.cpu.dcache.ReadReq.misses::total       2162394                       # number of ReadReq misses (Count)
system.cpu.dcache.ReadReq.missLatency::cpu.data 126012072000                       # number of ReadReq miss ticks (Tick)
system.cpu.dcache.ReadReq.missLatency::total 126012072000                       # number of ReadReq miss ticks (Tick)
system.cpu.dcache.ReadReq.accesses::cpu.data     25211595                       # number of ReadReq accesses(hits+misses) (Count)
system.cpu.dcache.ReadReq.accesses::total     25211595                       # number of ReadReq accesses(hits+misses) (Count)
system.cpu.dcache.ReadReq.missRate::cpu.data     0.085770                       # miss rate for ReadReq accesses (Ratio)
system.cpu.dcache.ReadReq.missRate::total     0.085770                       # miss rate for ReadReq accesses (Ratio)
system.cpu.dcache.ReadReq.avgMissLatency::cpu.data 58274.334834                       # average ReadReq miss latency ((Tick/Count))
system.cpu.dcache.ReadReq.avgMissLatency::total 58274.334834                       # average ReadReq miss latency ((Tick/Count))
system.cpu.dcache.ReadReq.mshrHits::cpu.data        42220                       # number of ReadReq MSHR hits (Count)
system.cpu.dcache.ReadReq.mshrHits::total        42220                       # number of ReadReq MSHR hits (Count)
system.cpu.dcache.ReadReq.mshrMisses::cpu.data      2120174                       # number of ReadReq MSHR misses (Count)
system.cpu.dcache.ReadReq.mshrMisses::total      2120174                       # number of ReadReq MSHR misses (Count)
system.cpu.dcache.ReadReq.mshrMissLatency::cpu.data 122428504000                       # number of ReadReq MSHR miss ticks (Tick)
system.cpu.dcache.ReadReq.mshrMissLatency::total 122428504000                       # number of ReadReq MSHR miss ticks (Tick)
system.cpu.dcache.ReadReq.mshrMissRate::cpu.data     0.084095                       # mshr miss rate for ReadReq accesses (Ratio)
system.cpu.dcache.ReadReq.mshrMissRate::total     0.084095                       # mshr miss rate for ReadReq accesses (Ratio)
system.cpu.dcache.ReadReq.avgMshrMissLatency::cpu.data 57744.554928                       # average ReadReq mshr miss latency ((Tick/Count))
system.cpu.dcache.ReadReq.avgMshrMissLatency::total 57744.554928                       # average ReadReq mshr miss latency ((Tick/Count))
system.cpu.dcache.SoftPFReq.hits::cpu.data       102452                       # number of SoftPFReq hits (Count)
system.cpu.dcache.SoftPFReq.hits::total        102452                       # number of SoftPFReq hits (Count)
system.cpu.dcache.SoftPFReq.misses::cpu.data            5                       # number of SoftPFReq misses (Count)
system.cpu.dcache.SoftPFReq.misses::total            5                       # number of SoftPFReq misses (Count)
system.cpu.dcache.SoftPFReq.accesses::cpu.data       102457                       # number of SoftPFReq accesses(hits+misses) (Count)
system.cpu.dcache.SoftPFReq.accesses::total       102457                       # number of SoftPFReq accesses(hits+misses) (Count)
system.cpu.dcache.SoftPFReq.missRate::cpu.data     0.000049                       # miss rate for SoftPFReq accesses (Ratio)
system.cpu.dcache.SoftPFReq.missRate::total     0.000049                       # miss rate for SoftPFReq accesses (Ratio)
system.cpu.dcache.SoftPFReq.mshrMisses::cpu.data            5                       # number of SoftPFReq MSHR misses (Count)
system.cpu.dcache.SoftPFReq.mshrMisses::total            5                       # number of SoftPFReq MSHR misses (Count)
system.cpu.dcache.SoftPFReq.mshrMissLatency::cpu.data       336500                       # number of SoftPFReq MSHR miss ticks (Tick)
system.cpu.dcache.SoftPFReq.mshrMissLatency::total       336500                       # number of SoftPFReq MSHR miss ticks (Tick)
system.cpu.dcache.SoftPFReq.mshrMissRate::cpu.data     0.000049                       # mshr miss rate for SoftPFReq accesses (Ratio)
system.cpu.dcache.SoftPFReq.mshrMissRate::total     0.000049                       # mshr miss rate for SoftPFReq accesses (Ratio)
system.cpu.dcache.SoftPFReq.avgMshrMissLatency::cpu.data        67300                       # average SoftPFReq mshr miss latency ((Tick/Count))
system.cpu.dcache.SoftPFReq.avgMshrMissLatency::total        67300                       # average SoftPFReq mshr miss latency ((Tick/Count))
system.cpu.dcache.StoreCondReq.hits::cpu.data           10                       # number of StoreCondReq hits (Count)
system.cpu.dcache.StoreCondReq.hits::total           10                       # number of StoreCondReq hits (Count)
system.cpu.dcache.StoreCondReq.accesses::cpu.data           10                       # number of StoreCondReq accesses(hits+misses) (Count)
system.cpu.dcache.StoreCondReq.accesses::total           10                       # number of StoreCondReq accesses(hits+misses) (Count)
system.cpu.dcache.SwapReq.hits::cpu.data        98357                       # number of SwapReq hits (Count)
system.cpu.dcache.SwapReq.hits::total           98357                       # number of SwapReq hits (Count)
system.cpu.dcache.SwapReq.misses::cpu.data            1                       # number of SwapReq misses (Count)
system.cpu.dcache.SwapReq.misses::total             1                       # number of SwapReq misses (Count)
system.cpu.dcache.SwapReq.missLatency::cpu.data        66000                       # number of SwapReq miss ticks (Tick)
system.cpu.dcache.SwapReq.missLatency::total        66000                       # number of SwapReq miss ticks (Tick)
system.cpu.dcache.SwapReq.accesses::cpu.data        98358                       # number of SwapReq accesses(hits+misses) (Count)
system.cpu.dcache.SwapReq.accesses::total        98358                       # number of SwapReq accesses(hits+misses) (Count)
system.cpu.dcache.SwapReq.missRate::cpu.data     0.000010                       # miss rate for SwapReq accesses (Ratio)
system.cpu.dcache.SwapReq.missRate::total     0.000010                       # miss rate for SwapReq accesses (Ratio)
system.cpu.dcache.SwapReq.avgMissLatency::cpu.data        66000                       # average SwapReq miss latency ((Tick/Count))
system.cpu.dcache.SwapReq.avgMissLatency::total        66000                       # average SwapReq miss latency ((Tick/Count))
system.cpu.dcache.SwapReq.mshrHits::cpu.data            1                       # number of SwapReq MSHR hits (Count)
system.cpu.dcache.SwapReq.mshrHits::total            1                       # number of SwapReq MSHR hits (Count)
system.cpu.dcache.WriteLineReq.misses::cpu.data            9                       # number of WriteLineReq misses (Count)
system.cpu.dcache.WriteLineReq.misses::total            9                       # number of WriteLineReq misses (Count)
system.cpu.dcache.WriteLineReq.missLatency::cpu.data        96998                       # number of WriteLineReq miss ticks (Tick)
system.cpu.dcache.WriteLineReq.missLatency::total        96998                       # number of WriteLineReq miss ticks (Tick)
system.cpu.dcache.WriteLineReq.accesses::cpu.data            9                       # number of WriteLineReq accesses(hits+misses) (Count)
system.cpu.dcache.WriteLineReq.accesses::total            9                       # number of WriteLineReq accesses(hits+misses) (Count)
system.cpu.dcache.WriteLineReq.missRate::cpu.data            1                       # miss rate for WriteLineReq accesses (Ratio)
system.cpu.dcache.WriteLineReq.missRate::total            1                       # miss rate for WriteLineReq accesses (Ratio)
system.cpu.dcache.WriteLineReq.avgMissLatency::cpu.data 10777.555556                       # average WriteLineReq miss latency ((Tick/Count))
system.cpu.dcache.WriteLineReq.avgMissLatency::total 10777.555556                       # average WriteLineReq miss latency ((Tick/Count))
system.cpu.dcache.WriteLineReq.mshrMisses::cpu.data            9                       # number of WriteLineReq MSHR misses (Count)
system.cpu.dcache.WriteLineReq.mshrMisses::total            9                       # number of WriteLineReq MSHR misses (Count)
system.cpu.dcache.WriteLineReq.mshrMissLatency::cpu.data        87998                       # number of WriteLineReq MSHR miss ticks (Tick)
system.cpu.dcache.WriteLineReq.mshrMissLatency::total        87998                       # number of WriteLineReq MSHR miss ticks (Tick)
system.cpu.dcache.WriteLineReq.mshrMissRate::cpu.data            1                       # mshr miss rate for WriteLineReq accesses (Ratio)
system.cpu.dcache.WriteLineReq.mshrMissRate::total            1                       # mshr miss rate for WriteLineReq accesses (Ratio)
system.cpu.dcache.WriteLineReq.avgMshrMissLatency::cpu.data  9777.555556                       # average WriteLineReq mshr miss latency ((Tick/Count))
system.cpu.dcache.WriteLineReq.avgMshrMissLatency::total  9777.555556                       # average WriteLineReq mshr miss latency ((Tick/Count))
system.cpu.dcache.WriteReq.hits::cpu.data     18316310                       # number of WriteReq hits (Count)
system.cpu.dcache.WriteReq.hits::total       18316310                       # number of WriteReq hits (Count)
system.cpu.dcache.WriteReq.misses::cpu.data        24034                       # number of WriteReq misses (Count)
system.cpu.dcache.WriteReq.misses::total        24034                       # number of WriteReq misses (Count)
system.cpu.dcache.WriteReq.missLatency::cpu.data    891509110                       # number of WriteReq miss ticks (Tick)
system.cpu.dcache.WriteReq.missLatency::total    891509110                       # number of WriteReq miss ticks (Tick)
system.cpu.dcache.WriteReq.accesses::cpu.data     18340344                       # number of WriteReq accesses(hits+misses) (Count)
system.cpu.dcache.WriteReq.accesses::total     18340344                       # number of WriteReq accesses(hits+misses) (Count)
system.cpu.dcache.WriteReq.missRate::cpu.data     0.001310                       # miss rate for WriteReq accesses (Ratio)
system.cpu.dcache.WriteReq.missRate::total     0.001310                       # miss rate for WriteReq accesses (Ratio)
system.cpu.dcache.WriteReq.avgMissLatency::cpu.data 37093.663560                       # average WriteReq miss latency ((Tick/Count))
system.cpu.dcache.WriteReq.avgMissLatency::total 37093.663560                       # average WriteReq miss latency ((Tick/Count))
system.cpu.dcache.WriteReq.mshrHits::cpu.data         2731                       # number of WriteReq MSHR hits (Count)
system.cpu.dcache.WriteReq.mshrHits::total         2731                       # number of WriteReq MSHR hits (Count)
system.cpu.dcache.WriteReq.mshrMisses::cpu.data        21303                       # number of WriteReq MSHR misses (Count)
system.cpu.dcache.WriteReq.mshrMisses::total        21303                       # number of WriteReq MSHR misses (Count)
system.cpu.dcache.WriteReq.mshrMissLatency::cpu.data    748094655                       # number of WriteReq MSHR miss ticks (Tick)
system.cpu.dcache.WriteReq.mshrMissLatency::total    748094655                       # number of WriteReq MSHR miss ticks (Tick)
system.cpu.dcache.WriteReq.mshrMissRate::cpu.data     0.001162                       # mshr miss rate for WriteReq accesses (Ratio)
system.cpu.dcache.WriteReq.mshrMissRate::total     0.001162                       # mshr miss rate for WriteReq accesses (Ratio)
system.cpu.dcache.WriteReq.avgMshrMissLatency::cpu.data 35116.868751                       # average WriteReq mshr miss latency ((Tick/Count))
system.cpu.dcache.WriteReq.avgMshrMissLatency::total 35116.868751                       # average WriteReq mshr miss latency ((Tick/Count))
system.cpu.dcache.power_state.pwrStateResidencyTicks::UNDEFINED  62833674500                       # Cumulative time (in ticks) in various power states (Tick)
system.cpu.dcache.tags.tagsInUse          1017.919494                       # Average ticks per tags in use ((Tick/Count))
system.cpu.dcache.tags.totalRefs             43707857                       # Total number of references to valid blocks. (Count)
system.cpu.dcache.tags.sampledRefs            2141494                       # Sample count of references to valid blocks. (Count)
system.cpu.dcache.tags.avgRefs              20.409983                       # Average number of references to valid blocks. ((Count/Count))
system.cpu.dcache.tags.warmupTick              145000                       # The tick when the warmup percentage was hit. (Tick)
system.cpu.dcache.tags.occupancies::cpu.data  1017.919494                       # Average occupied blocks per tick, per requestor ((Count/Tick))
system.cpu.dcache.tags.avgOccs::cpu.data     0.994062                       # Average percentage of cache occupancy ((Ratio/Tick))
system.cpu.dcache.tags.avgOccs::total        0.994062                       # Average percentage of cache occupancy ((Ratio/Tick))
system.cpu.dcache.tags.occupanciesTaskId::1024         1024                       # Occupied blocks per task id (Count)
system.cpu.dcache.tags.ageTaskId_1024::0           63                       # Occupied blocks per task id, per block age (Count)
system.cpu.dcache.tags.ageTaskId_1024::1           11                       # Occupied blocks per task id, per block age (Count)
system.cpu.dcache.tags.ageTaskId_1024::2          105                       # Occupied blocks per task id, per block age (Count)
system.cpu.dcache.tags.ageTaskId_1024::3          665                       # Occupied blocks per task id, per block age (Count)
system.cpu.dcache.tags.ageTaskId_1024::4          180                       # Occupied blocks per task id, per block age (Count)
system.cpu.dcache.tags.ratioOccsTaskId::1024            1                       # Ratio of occupied blocks and all blocks, per task id (Ratio)
system.cpu.dcache.tags.tagAccesses           89647118                       # Number of tag accesses (Count)
system.cpu.dcache.tags.dataAccesses          89647118                       # Number of data accesses (Count)
system.cpu.dcache.tags.power_state.pwrStateResidencyTicks::UNDEFINED  62833674500                       # Cumulative time (in ticks) in various power states (Tick)
system.cpu.decode.idleCycles                 18567662                       # Number of cycles decode is idle (Cycle)
system.cpu.decode.blockedCycles              75543467                       # Number of cycles decode is blocked (Cycle)
system.cpu.decode.runCycles                  21427727                       # Number of cycles decode is running (Cycle)
system.cpu.decode.unblockCycles               7119956                       # Number of cycles decode is unblocking (Cycle)
system.cpu.decode.squashCycles                 366575                       # Number of cycles decode is squashing (Cycle)
system.cpu.decode.branchResolved             12283596                       # Number of times decode resolved a branch (Count)
system.cpu.decode.branchMispred                 27182                       # Number of times decode detected a branch misprediction (Count)
system.cpu.decode.decodedInsts              174287424                       # Number of instructions handled by decode (Count)
system.cpu.decode.squashedInsts                134417                       # Number of squashed instructions handled by decode (Count)
system.cpu.fetch.icacheStallCycles           26817516                       # Number of cycles fetch is stalled on an Icache miss (Cycle)
system.cpu.fetch.insts                      163479999                       # Number of instructions fetch has processed (Count)
system.cpu.fetch.branches                    25130096                       # Number of branches that fetch encountered (Count)
system.cpu.fetch.predictedBranches           14235918                       # Number of branches that fetch has predicted taken (Count)
system.cpu.fetch.cycles                      95813966                       # Number of cycles fetch has run and was not squashing or blocked (Cycle)
system.cpu.fetch.squashCycles                  787496                       # Number of cycles fetch has spent squashing (Cycle)
system.cpu.fetch.miscStallCycles                    9                       # Number of cycles fetch has spent waiting on interrupts, or bad addresses, or out of MSHRs (Cycle)
system.cpu.fetch.icacheWaitRetryStallCycles          148                       # Number of stall cycles due to full MSHR (Cycle)
system.cpu.fetch.cacheLines                  22900530                       # Number of cache lines fetched (Count)
system.cpu.fetch.icacheSquashes                128636                       # Number of outstanding Icache misses that were squashed (Count)
system.cpu.fetch.nisnDist::samples          123025387                       # Number of instructions fetched each cycle (Total) (Count)
system.cpu.fetch.nisnDist::mean              1.452485                       # Number of instructions fetched each cycle (Total) (Count)
system.cpu.fetch.nisnDist::stdev             2.711795                       # Number of instructions fetched each cycle (Total) (Count)
system.cpu.fetch.nisnDist::underflows               0      0.00%      0.00% # Number of instructions fetched each cycle (Total) (Count)
system.cpu.fetch.nisnDist::0                 86917859     70.65%     70.65% # Number of instructions fetched each cycle (Total) (Count)
system.cpu.fetch.nisnDist::1                  6763174      5.50%     76.15% # Number of instructions fetched each cycle (Total) (Count)
system.cpu.fetch.nisnDist::2                  4019926      3.27%     79.42% # Number of instructions fetched each cycle (Total) (Count)
system.cpu.fetch.nisnDist::3                  2366659      1.92%     81.34% # Number of instructions fetched each cycle (Total) (Count)
system.cpu.fetch.nisnDist::4                  2745649      2.23%     83.57% # Number of instructions fetched each cycle (Total) (Count)
system.cpu.fetch.nisnDist::5                  2393496      1.95%     85.52% # Number of instructions fetched each cycle (Total) (Count)
system.cpu.fetch.nisnDist::6                  3298365      2.68%     88.20% # Number of instructions fetched each cycle (Total) (Count)
system.cpu.fetch.nisnDist::7                  2112828      1.72%     89.91% # Number of instructions fetched each cycle (Total) (Count)
system.cpu.fetch.nisnDist::8                 12407431     10.09%    100.00% # Number of instructions fetched each cycle (Total) (Count)
system.cpu.fetch.nisnDist::overflows                0      0.00%    100.00% # Number of instructions fetched each cycle (Total) (Count)
system.cpu.fetch.nisnDist::min_value                0                       # Number of instructions fetched each cycle (Total) (Count)
system.cpu.fetch.nisnDist::max_value                8                       # Number of instructions fetched each cycle (Total) (Count)
system.cpu.fetch.nisnDist::total            123025387                       # Number of instructions fetched each cycle (Total) (Count)
system.cpu.fetch.branchRate                  0.199973                       # Number of branch fetches per cycle (Ratio)
system.cpu.fetch.rate                        1.300895                       # Number of inst fetches per cycle ((Count/Cycle))
system.cpu.icache.demandHits::cpu.inst       22753411                       # number of demand (read+write) hits (Count)
system.cpu.icache.demandHits::total          22753411                       # number of demand (read+write) hits (Count)
system.cpu.icache.overallHits::cpu.inst      22753411                       # number of overall hits (Count)
system.cpu.icache.overallHits::total         22753411                       # number of overall hits (Count)
system.cpu.icache.demandMisses::cpu.inst       147119                       # number of demand (read+write) misses (Count)
system.cpu.icache.demandMisses::total          147119                       # number of demand (read+write) misses (Count)
system.cpu.icache.overallMisses::cpu.inst       147119                       # number of overall misses (Count)
system.cpu.icache.overallMisses::total         147119                       # number of overall misses (Count)
system.cpu.icache.demandMissLatency::cpu.inst   3411483996                       # number of demand (read+write) miss ticks (Tick)
system.cpu.icache.demandMissLatency::total   3411483996                       # number of demand (read+write) miss ticks (Tick)
system.cpu.icache.overallMissLatency::cpu.inst   3411483996                       # number of overall miss ticks (Tick)
system.cpu.icache.overallMissLatency::total   3411483996                       # number of overall miss ticks (Tick)
system.cpu.icache.demandAccesses::cpu.inst     22900530                       # number of demand (read+write) accesses (Count)
system.cpu.icache.demandAccesses::total      22900530                       # number of demand (read+write) accesses (Count)
system.cpu.icache.overallAccesses::cpu.inst     22900530                       # number of overall (read+write) accesses (Count)
system.cpu.icache.overallAccesses::total     22900530                       # number of overall (read+write) accesses (Count)
system.cpu.icache.demandMissRate::cpu.inst     0.006424                       # miss rate for demand accesses (Ratio)
system.cpu.icache.demandMissRate::total      0.006424                       # miss rate for demand accesses (Ratio)
system.cpu.icache.overallMissRate::cpu.inst     0.006424                       # miss rate for overall accesses (Ratio)
system.cpu.icache.overallMissRate::total     0.006424                       # miss rate for overall accesses (Ratio)
system.cpu.icache.demandAvgMissLatency::cpu.inst 23188.602397                       # average overall miss latency ((Cycle/Count))
system.cpu.icache.demandAvgMissLatency::total 23188.602397                       # average overall miss latency ((Cycle/Count))
system.cpu.icache.overallAvgMissLatency::cpu.inst 23188.602397                       # average overall miss latency ((Cycle/Count))
system.cpu.icache.overallAvgMissLatency::total 23188.602397                       # average overall miss latency ((Cycle/Count))
system.cpu.icache.blockedCycles::no_mshrs         1405                       # number of cycles access was blocked (Cycle)
system.cpu.icache.blockedCycles::no_targets            0                       # number of cycles access was blocked (Cycle)
system.cpu.icache.blockedCauses::no_mshrs           22                       # number of times access was blocked (Count)
system.cpu.icache.blockedCauses::no_targets            0                       # number of times access was blocked (Count)
system.cpu.icache.avgBlocked::no_mshrs      63.863636                       # average number of cycles each access was blocked ((Cycle/Count))
system.cpu.icache.avgBlocked::no_targets          nan                       # average number of cycles each access was blocked ((Cycle/Count))
system.cpu.icache.writebacks::writebacks       144711                       # number of writebacks (Count)
system.cpu.icache.writebacks::total            144711                       # number of writebacks (Count)
system.cpu.icache.demandMshrHits::cpu.inst         1908                       # number of demand (read+write) MSHR hits (Count)
system.cpu.icache.demandMshrHits::total          1908                       # number of demand (read+write) MSHR hits (Count)
system.cpu.icache.overallMshrHits::cpu.inst         1908                       # number of overall MSHR hits (Count)
system.cpu.icache.overallMshrHits::total         1908                       # number of overall MSHR hits (Count)
system.cpu.icache.demandMshrMisses::cpu.inst       145211                       # number of demand (read+write) MSHR misses (Count)
system.cpu.icache.demandMshrMisses::total       145211                       # number of demand (read+write) MSHR misses (Count)
system.cpu.icache.overallMshrMisses::cpu.inst       145211                       # number of overall MSHR misses (Count)
system.cpu.icache.overallMshrMisses::total       145211                       # number of overall MSHR misses (Count)
system.cpu.icache.demandMshrMissLatency::cpu.inst   3238286498                       # number of demand (read+write) MSHR miss ticks (Tick)
system.cpu.icache.demandMshrMissLatency::total   3238286498                       # number of demand (read+write) MSHR miss ticks (Tick)
system.cpu.icache.overallMshrMissLatency::cpu.inst   3238286498                       # number of overall MSHR miss ticks (Tick)
system.cpu.icache.overallMshrMissLatency::total   3238286498                       # number of overall MSHR miss ticks (Tick)
system.cpu.icache.demandMshrMissRate::cpu.inst     0.006341                       # mshr miss ratio for demand accesses (Ratio)
system.cpu.icache.demandMshrMissRate::total     0.006341                       # mshr miss ratio for demand accesses (Ratio)
system.cpu.icache.overallMshrMissRate::cpu.inst     0.006341                       # mshr miss ratio for overall accesses (Ratio)
system.cpu.icache.overallMshrMissRate::total     0.006341                       # mshr miss ratio for overall accesses (Ratio)
system.cpu.icache.demandAvgMshrMissLatency::cpu.inst 22300.559173                       # average overall mshr miss latency ((Cycle/Count))
system.cpu.icache.demandAvgMshrMissLatency::total 22300.559173                       # average overall mshr miss latency ((Cycle/Count))
system.cpu.icache.overallAvgMshrMissLatency::cpu.inst 22300.559173                       # average overall mshr miss latency ((Cycle/Count))
system.cpu.icache.overallAvgMshrMissLatency::total 22300.559173                       # average overall mshr miss latency ((Cycle/Count))
system.cpu.icache.replacements                 144711                       # number of replacements (Count)
system.cpu.icache.ReadReq.hits::cpu.inst     22753411                       # number of ReadReq hits (Count)
system.cpu.icache.ReadReq.hits::total        22753411                       # number of ReadReq hits (Count)
system.cpu.icache.ReadReq.misses::cpu.inst       147119                       # number of ReadReq misses (Count)
system.cpu.icache.ReadReq.misses::total        147119                       # number of ReadReq misses (Count)
system.cpu.icache.ReadReq.missLatency::cpu.inst   3411483996                       # number of ReadReq miss ticks (Tick)
system.cpu.icache.ReadReq.missLatency::total   3411483996                       # number of ReadReq miss ticks (Tick)
system.cpu.icache.ReadReq.accesses::cpu.inst     22900530                       # number of ReadReq accesses(hits+misses) (Count)
system.cpu.icache.ReadReq.accesses::total     22900530                       # number of ReadReq accesses(hits+misses) (Count)
system.cpu.icache.ReadReq.missRate::cpu.inst     0.006424                       # miss rate for ReadReq accesses (Ratio)
system.cpu.icache.ReadReq.missRate::total     0.006424                       # miss rate for ReadReq accesses (Ratio)
system.cpu.icache.ReadReq.avgMissLatency::cpu.inst 23188.602397                       # average ReadReq miss latency ((Tick/Count))
system.cpu.icache.ReadReq.avgMissLatency::total 23188.602397                       # average ReadReq miss latency ((Tick/Count))
system.cpu.icache.ReadReq.mshrHits::cpu.inst         1908                       # number of ReadReq MSHR hits (Count)
system.cpu.icache.ReadReq.mshrHits::total         1908                       # number of ReadReq MSHR hits (Count)
system.cpu.icache.ReadReq.mshrMisses::cpu.inst       145211                       # number of ReadReq MSHR misses (Count)
system.cpu.icache.ReadReq.mshrMisses::total       145211                       # number of ReadReq MSHR misses (Count)
system.cpu.icache.ReadReq.mshrMissLatency::cpu.inst   3238286498                       # number of ReadReq MSHR miss ticks (Tick)
system.cpu.icache.ReadReq.mshrMissLatency::total   3238286498                       # number of ReadReq MSHR miss ticks (Tick)
system.cpu.icache.ReadReq.mshrMissRate::cpu.inst     0.006341                       # mshr miss rate for ReadReq accesses (Ratio)
system.cpu.icache.ReadReq.mshrMissRate::total     0.006341                       # mshr miss rate for ReadReq accesses (Ratio)
system.cpu.icache.ReadReq.avgMshrMissLatency::cpu.inst 22300.559173                       # average ReadReq mshr miss latency ((Tick/Count))
system.cpu.icache.ReadReq.avgMshrMissLatency::total 22300.559173                       # average ReadReq mshr miss latency ((Tick/Count))
system.cpu.icache.power_state.pwrStateResidencyTicks::UNDEFINED  62833674500                       # Cumulative time (in ticks) in various power states (Tick)
system.cpu.icache.tags.tagsInUse           493.598142                       # Average ticks per tags in use ((Tick/Count))
system.cpu.icache.tags.totalRefs             22898621                       # Total number of references to valid blocks. (Count)
system.cpu.icache.tags.sampledRefs             145210                       # Sample count of references to valid blocks. (Count)
system.cpu.icache.tags.avgRefs             157.693141                       # Average number of references to valid blocks. ((Count/Count))
system.cpu.icache.tags.warmupTick               77000                       # The tick when the warmup percentage was hit. (Tick)
system.cpu.icache.tags.occupancies::cpu.inst   493.598142                       # Average occupied blocks per tick, per requestor ((Count/Tick))
system.cpu.icache.tags.avgOccs::cpu.inst     0.964059                       # Average percentage of cache occupancy ((Ratio/Tick))
system.cpu.icache.tags.avgOccs::total        0.964059                       # Average percentage of cache occupancy ((Ratio/Tick))
system.cpu.icache.tags.occupanciesTaskId::1024          499                       # Occupied blocks per task id (Count)
system.cpu.icache.tags.ageTaskId_1024::0           95                       # Occupied blocks per task id, per block age (Count)
system.cpu.icache.tags.ageTaskId_1024::2            9                       # Occupied blocks per task id, per block age (Count)
system.cpu.icache.tags.ageTaskId_1024::3           17                       # Occupied blocks per task id, per block age (Count)
system.cpu.icache.tags.ageTaskId_1024::4          378                       # Occupied blocks per task id, per block age (Count)
system.cpu.icache.tags.ratioOccsTaskId::1024     0.974609                       # Ratio of occupied blocks and all blocks, per task id (Ratio)
system.cpu.icache.tags.tagAccesses           45946270                       # Number of tag accesses (Count)
system.cpu.icache.tags.dataAccesses          45946270                       # Number of data accesses (Count)
system.cpu.icache.tags.power_state.pwrStateResidencyTicks::UNDEFINED  62833674500                       # Cumulative time (in ticks) in various power states (Tick)
system.cpu.iew.idleCycles                           0                       # Number of cycles IEW is idle (Cycle)
system.cpu.iew.squashCycles                    366575                       # Number of cycles IEW is squashing (Cycle)
system.cpu.iew.blockCycles                    2524529                       # Number of cycles IEW is blocking (Cycle)
[...]
system.mem_ctrls.dram.bwRead::cpu.inst      147905404                       # Total read bandwidth from this memory ((Byte/Second))
system.mem_ctrls.dram.bwRead::cpu.data     2181219180                       # Total read bandwidth from this memory ((Byte/Second))
system.mem_ctrls.dram.bwRead::total        2329124584                       # Total read bandwidth from this memory ((Byte/Second))
system.mem_ctrls.dram.bwInstRead::cpu.inst    147905404                       # Instruction read bandwidth from this memory ((Byte/Second))
system.mem_ctrls.dram.bwInstRead::total     147905404                       # Instruction read bandwidth from this memory ((Byte/Second))
system.mem_ctrls.dram.bwWrite::writebacks     21608795                       # Write bandwidth from this memory ((Byte/Second))
system.mem_ctrls.dram.bwWrite::total         21608795                       # Write bandwidth from this memory ((Byte/Second))
system.mem_ctrls.dram.bwTotal::writebacks     21608795                       # Total bandwidth to/from this memory ((Byte/Second))
system.mem_ctrls.dram.bwTotal::cpu.inst     147905404                       # Total bandwidth to/from this memory ((Byte/Second))
system.mem_ctrls.dram.bwTotal::cpu.data    2181219180                       # Total bandwidth to/from this memory ((Byte/Second))
system.mem_ctrls.dram.bwTotal::total       2350733379                       # Total bandwidth to/from this memory ((Byte/Second))
system.mem_ctrls.dram.readBursts              2126061                       # Number of DRAM read bursts (Count)
system.mem_ctrls.dram.writeBursts                8120                       # Number of DRAM write bursts (Count)
system.mem_ctrls.dram.perBankRdBursts::0       132986                       # Per bank write bursts (Count)
system.mem_ctrls.dram.perBankRdBursts::1       133042                       # Per bank write bursts (Count)
system.mem_ctrls.dram.perBankRdBursts::2       133094                       # Per bank write bursts (Count)
system.mem_ctrls.dram.perBankRdBursts::3       133046                       # Per bank write bursts (Count)
system.mem_ctrls.dram.perBankRdBursts::4       133029                       # Per bank write bursts (Count)
system.mem_ctrls.dram.perBankRdBursts::5       133196                       # Per bank write bursts (Count)
system.mem_ctrls.dram.perBankRdBursts::6       132747                       # Per bank write bursts (Count)
system.mem_ctrls.dram.perBankRdBursts::7       132736                       # Per bank write bursts (Count)
system.mem_ctrls.dram.perBankRdBursts::8       132335                       # Per bank write bursts (Count)
system.mem_ctrls.dram.perBankRdBursts::9       132578                       # Per bank write bursts (Count)
system.mem_ctrls.dram.perBankRdBursts::10       132904                       # Per bank write bursts (Count)
system.mem_ctrls.dram.perBankRdBursts::11       132982                       # Per bank write bursts (Count)
system.mem_ctrls.dram.perBankRdBursts::12       132867                       # Per bank write bursts (Count)
system.mem_ctrls.dram.perBankRdBursts::13       132746                       # Per bank write bursts (Count)
system.mem_ctrls.dram.perBankRdBursts::14       132886                       # Per bank write bursts (Count)
system.mem_ctrls.dram.perBankRdBursts::15       132887                       # Per bank write bursts (Count)
system.mem_ctrls.dram.perBankWrBursts::0          454                       # Per bank write bursts (Count)
system.mem_ctrls.dram.perBankWrBursts::1          470                       # Per bank write bursts (Count)
system.mem_ctrls.dram.perBankWrBursts::2          546                       # Per bank write bursts (Count)
system.mem_ctrls.dram.perBankWrBursts::3          572                       # Per bank write bursts (Count)
system.mem_ctrls.dram.perBankWrBursts::4          515                       # Per bank write bursts (Count)
system.mem_ctrls.dram.perBankWrBursts::5          590                       # Per bank write bursts (Count)
system.mem_ctrls.dram.perBankWrBursts::6          562                       # Per bank write bursts (Count)
system.mem_ctrls.dram.perBankWrBursts::7          428                       # Per bank write bursts (Count)
system.mem_ctrls.dram.perBankWrBursts::8          489                       # Per bank write bursts (Count)
system.mem_ctrls.dram.perBankWrBursts::9          573                       # Per bank write bursts (Count)
system.mem_ctrls.dram.perBankWrBursts::10          416                       # Per bank write bursts (Count)
system.mem_ctrls.dram.perBankWrBursts::11          557                       # Per bank write bursts (Count)
system.mem_ctrls.dram.perBankWrBursts::12          447                       # Per bank write bursts (Count)
system.mem_ctrls.dram.perBankWrBursts::13          650                       # Per bank write bursts (Count)
system.mem_ctrls.dram.perBankWrBursts::14          431                       # Per bank write bursts (Count)
system.mem_ctrls.dram.perBankWrBursts::15          420                       # Per bank write bursts (Count)
system.mem_ctrls.dram.totQLat             15439624250                       # Total ticks spent queuing (Tick)
system.mem_ctrls.dram.totBusLat           10630305000                       # Total ticks spent in databus transfers (Tick)
system.mem_ctrls.dram.totMemAccLat        55303268000                       # Total ticks spent from burst creation until serviced by the DRAM (Tick)
system.mem_ctrls.dram.avgQLat                 7262.08                       # Average queueing delay per DRAM burst ((Tick/Count))
system.mem_ctrls.dram.avgBusLat               5000.00                       # Average bus latency per DRAM burst ((Tick/Count))
system.mem_ctrls.dram.avgMemAccLat           26012.08                       # Average memory access latency per DRAM burst ((Tick/Count))
system.mem_ctrls.dram.readRowHits             1922081                       # Number of row buffer hits during reads (Count)
system.mem_ctrls.dram.writeRowHits               6722                       # Number of row buffer hits during writes (Count)
system.mem_ctrls.dram.readRowHitRate            90.41                       # Row buffer hit rate for reads (Ratio)
system.mem_ctrls.dram.writeRowHitRate           82.78                       # Row buffer hit rate for writes (Ratio)
system.mem_ctrls.dram.bytesPerActivate::samples       205364                       # Bytes accessed per row activation (Byte)
system.mem_ctrls.dram.bytesPerActivate::mean   665.091214                       # Bytes accessed per row activation (Byte)
system.mem_ctrls.dram.bytesPerActivate::gmean   506.632856                       # Bytes accessed per row activation (Byte)
system.mem_ctrls.dram.bytesPerActivate::stdev   365.805986                       # Bytes accessed per row activation (Byte)
system.mem_ctrls.dram.bytesPerActivate::0-127        20100      9.79%      9.79% # Bytes accessed per row activation (Byte)
system.mem_ctrls.dram.bytesPerActivate::128-255        19062      9.28%     19.07% # Bytes accessed per row activation (Byte)
system.mem_ctrls.dram.bytesPerActivate::256-383        17671      8.60%     27.67% # Bytes accessed per row activation (Byte)
system.mem_ctrls.dram.bytesPerActivate::384-511         1165      0.57%     28.24% # Bytes accessed per row activation (Byte)
system.mem_ctrls.dram.bytesPerActivate::512-639        46439     22.61%     50.85% # Bytes accessed per row activation (Byte)
system.mem_ctrls.dram.bytesPerActivate::640-767         1937      0.94%     51.80% # Bytes accessed per row activation (Byte)
system.mem_ctrls.dram.bytesPerActivate::768-895         2112      1.03%     52.83% # Bytes accessed per row activation (Byte)
system.mem_ctrls.dram.bytesPerActivate::896-1023         2045      1.00%     53.82% # Bytes accessed per row activation (Byte)
system.mem_ctrls.dram.bytesPerActivate::1024-1151        94833     46.18%    100.00% # Bytes accessed per row activation (Byte)
system.mem_ctrls.dram.bytesPerActivate::total       205364                       # Bytes accessed per row activation (Byte)
system.mem_ctrls.dram.bytesRead             136067904                       # Total bytes read (Byte)
system.mem_ctrls.dram.bytesWritten             519680                       # Total bytes written (Byte)
system.mem_ctrls.dram.avgRdBW             2165.525176                       # Average DRAM read bandwidth in MiBytes/s ((Byte/Second))
system.mem_ctrls.dram.avgWrBW                8.270724                       # Average DRAM write bandwidth in MiBytes/s ((Byte/Second))
system.mem_ctrls.dram.peakBW                 12800.00                       # Theoretical peak bandwidth in MiByte/s ((Byte/Second))
system.mem_ctrls.dram.busUtil                   16.98                       # Data bus utilization in percentage (Ratio)
system.mem_ctrls.dram.busUtilRead               16.92                       # Data bus utilization in percentage for reads (Ratio)
system.mem_ctrls.dram.busUtilWrite               0.06                       # Data bus utilization in percentage for writes (Ratio)
system.mem_ctrls.dram.pageHitRate               90.38                       # Row buffer hit rate, read and write combined (Ratio)
system.mem_ctrls.dram.power_state.pwrStateResidencyTicks::UNDEFINED  62833674500                       # Cumulative time (in ticks) in various power states (Tick)
system.mem_ctrls.dram.rank0.actEnergy       815409420                       # Energy for activate commands per rank (pJ) (Joule)
system.mem_ctrls.dram.rank0.preEnergy       433377615                       # Energy for precharge commands per rank (pJ) (Joule)
system.mem_ctrls.dram.rank0.readEnergy     7596067500                       # Energy for read commands per rank (pJ) (Joule)
system.mem_ctrls.dram.rank0.writeEnergy      21595140                       # Energy for write commands per rank (pJ) (Joule)
system.mem_ctrls.dram.rank0.refreshEnergy 4959530160.000001                       # Energy for refresh commands per rank (pJ) (Joule)
system.mem_ctrls.dram.rank0.actBackEnergy  20355087600                       # Energy for active background per rank (pJ) (Joule)
system.mem_ctrls.dram.rank0.preBackEnergy   6987004800                       # Energy for precharge background per rank (pJ) (Joule)
system.mem_ctrls.dram.rank0.actPowerDownEnergy            0                       # Energy for active power-down per rank (pJ) (Joule)
system.mem_ctrls.dram.rank0.prePowerDownEnergy            0                       # Energy for precharge power-down per rank (pJ) (Joule)
system.mem_ctrls.dram.rank0.selfRefreshEnergy            0                       # Energy for self refresh per rank (pJ) (Joule)
system.mem_ctrls.dram.rank0.totalEnergy   41168072235                       # Total energy per rank (pJ) (Joule)
system.mem_ctrls.dram.rank0.averagePower   655.191226                       # Core power per rank (mW) (Watt)
system.mem_ctrls.dram.rank0.totalIdleTime            0                       # Total Idle time Per DRAM Rank (Tick)
system.mem_ctrls.dram.rank0.pwrStateTime::IDLE  17981787750                       # Time in different power states (Tick)
system.mem_ctrls.dram.rank0.pwrStateTime::REF   2097940000                       # Time in different power states (Tick)
system.mem_ctrls.dram.rank0.pwrStateTime::SREF            0                       # Time in different power states (Tick)
system.mem_ctrls.dram.rank0.pwrStateTime::PRE_PDN            0                       # Time in different power states (Tick)
system.mem_ctrls.dram.rank0.pwrStateTime::ACT  42753946750                       # Time in different power states (Tick)
system.mem_ctrls.dram.rank0.pwrStateTime::ACT_PDN            0                       # Time in different power states (Tick)
system.mem_ctrls.dram.rank1.actEnergy       650982360                       # Energy for activate commands per rank (pJ) (Joule)
system.mem_ctrls.dram.rank1.preEnergy       345978765                       # Energy for precharge commands per rank (pJ) (Joule)
system.mem_ctrls.dram.rank1.readEnergy     7584000900                       # Energy for read commands per rank (pJ) (Joule)
system.mem_ctrls.dram.rank1.writeEnergy      20791260                       # Energy for write commands per rank (pJ) (Joule)
system.mem_ctrls.dram.rank1.refreshEnergy 4959530160.000001                       # Energy for refresh commands per rank (pJ) (Joule)
system.mem_ctrls.dram.rank1.actBackEnergy  19627340670                       # Energy for active background per rank (pJ) (Joule)
system.mem_ctrls.dram.rank1.preBackEnergy   7599844320                       # Energy for precharge background per rank (pJ) (Joule)
system.mem_ctrls.dram.rank1.actPowerDownEnergy            0                       # Energy for active power-down per rank (pJ) (Joule)
system.mem_ctrls.dram.rank1.prePowerDownEnergy            0                       # Energy for precharge power-down per rank (pJ) (Joule)
system.mem_ctrls.dram.rank1.selfRefreshEnergy            0                       # Energy for self refresh per rank (pJ) (Joule)
system.mem_ctrls.dram.rank1.totalEnergy   40788468435                       # Total energy per rank (pJ) (Joule)
system.mem_ctrls.dram.rank1.averagePower   649.149819                       # Core power per rank (mW) (Watt)
system.mem_ctrls.dram.rank1.totalIdleTime            0                       # Total Idle time Per DRAM Rank (Tick)
system.mem_ctrls.dram.rank1.pwrStateTime::IDLE  19537959500                       # Time in different power states (Tick)
system.mem_ctrls.dram.rank1.pwrStateTime::REF   2097940000                       # Time in different power states (Tick)
system.mem_ctrls.dram.rank1.pwrStateTime::SREF            0                       # Time in different power states (Tick)
system.mem_ctrls.dram.rank1.pwrStateTime::PRE_PDN            0                       # Time in different power states (Tick)
system.mem_ctrls.dram.rank1.pwrStateTime::ACT  41197775000                       # Time in different power states (Tick)
system.mem_ctrls.dram.rank1.pwrStateTime::ACT_PDN            0                       # Time in different power states (Tick)
system.mem_ctrls.power_state.pwrStateResidencyTicks::UNDEFINED  62833674500                       # Cumulative time (in ticks) in various power states (Tick)
system.membus.transDist::ReadResp             2265392                       # Transaction distribution (Count)
system.membus.transDist::WritebackDirty         21215                       # Transaction distribution (Count)
system.membus.transDist::WritebackClean        144711                       # Transaction distribution (Count)
system.membus.transDist::CleanEvict           2119255                       # Transaction distribution (Count)
system.membus.transDist::ReadExReq              21287                       # Transaction distribution (Count)
system.membus.transDist::ReadExResp             21287                       # Transaction distribution (Count)
system.membus.transDist::ReadCleanReq          145211                       # Transaction distribution (Count)
system.membus.transDist::ReadSharedReq        2120182                       # Transaction distribution (Count)
system.membus.transDist::InvalidateReq             25                       # Transaction distribution (Count)
system.membus.pktCount_system.cpu.icache.mem_side_port::system.mem_ctrls.port       435132                       # Packet count per connected requestor and responder (Count)
system.membus.pktCount_system.cpu.dcache.mem_side_port::system.mem_ctrls.port      6423433                       # Packet count per connected requestor and responder (Count)
system.membus.pktCount::total                 6858565                       # Packet count per connected requestor and responder (Count)
system.membus.pktSize_system.cpu.icache.mem_side_port::system.mem_ctrls.port     18554944                       # Cumulative packet size per connected requestor and responder (Byte)
system.membus.pktSize_system.cpu.dcache.mem_side_port::system.mem_ctrls.port    138411776                       # Cumulative packet size per connected requestor and responder (Byte)
system.membus.pktSize::total                156966720                       # Cumulative packet size per connected requestor and responder (Byte)
system.membus.snoops                                0                       # Total snoops (Count)
system.membus.snoopTraffic                          0                       # Total snoop traffic (Byte)
system.membus.snoopFanout::samples            2286705                       # Request fanout histogram (Count)
system.membus.snoopFanout::mean              0.000001                       # Request fanout histogram (Count)
system.membus.snoopFanout::stdev             0.000935                       # Request fanout histogram (Count)
system.membus.snoopFanout::underflows               0      0.00%      0.00% # Request fanout histogram (Count)
system.membus.snoopFanout::0                  2286703    100.00%    100.00% # Request fanout histogram (Count)
system.membus.snoopFanout::1                        2      0.00%    100.00% # Request fanout histogram (Count)
system.membus.snoopFanout::2                        0      0.00%    100.00% # Request fanout histogram (Count)
system.membus.snoopFanout::overflows                0      0.00%    100.00% # Request fanout histogram (Count)
system.membus.snoopFanout::min_value                0                       # Request fanout histogram (Count)
system.membus.snoopFanout::max_value                1                       # Request fanout histogram (Count)
system.membus.snoopFanout::total              2286705                       # Request fanout histogram (Count)
system.membus.power_state.pwrStateResidencyTicks::UNDEFINED  62833674500                       # Cumulative time (in ticks) in various power states (Tick)
system.membus.reqLayer0.occupancy          5983106000                       # Layer occupancy (ticks) (Tick)
system.membus.reqLayer0.utilization               0.1                       # Layer utilization (Ratio)
system.membus.respLayer1.occupancy          726583250                       # Layer occupancy (ticks) (Tick)
system.membus.respLayer1.utilization              0.0                       # Layer utilization (Ratio)
system.membus.respLayer2.occupancy        11118598250                       # Layer occupancy (ticks) (Tick)
system.membus.respLayer2.utilization              0.2                       # Layer utilization (Ratio)
system.membus.snoop_filter.totRequests        4571886                       # Total number of requests made to the snoop filter. (Count)
system.membus.snoop_filter.hitSingleRequests      2285182                       # Number of requests hitting in the snoop filter with a single holder of the requested data. (Count)
system.membus.snoop_filter.hitMultiRequests            1                       # Number of requests hitting in the snoop filter with multiple (>1) holders of the requested data. (Count)
system.membus.snoop_filter.totSnoops                0                       # Total number of snoops made to the snoop filter. (Count)
system.membus.snoop_filter.hitSingleSnoops            0                       # Number of snoops hitting in the snoop filter with a single holder of the requested data. (Count)
system.membus.snoop_filter.hitMultiSnoops            0                       # Number of snoops hitting in the snoop filter with multiple (>1) holders of the requested data. (Count)
system.voltage_domain.voltage                       1                       # Voltage in Volts (Volt)
system.workload.inst.arm                            0                       # number of arm instructions executed (Count)
system.workload.inst.quiesce                        0                       # number of quiesce instructions executed (Count)

---------- End Simulation Statistics   ----------
