
---------- Begin Simulation Statistics ----------
simSeconds                                   0.050873                       # Number of seconds simulated (Second)
simTicks                                  50872519500                       # Number of ticks simulated (Tick)
finalTick                                 50872519500                       # Number of ticks from beginning of simulation (restored from checkpoints and never reset) (Tick)
simFreq                                  1000000000000                       # The number of ticks per simulated second ((Tick/Second))
hostSeconds                                    178.94                       # Real time elapsed on the host (Second)
hostTickRate                                284304830                       # The number of ticks simulated per host second (ticks/s) ((Tick/Second))
hostMemory                                     680992                       # Number of bytes of host memory used (Byte)
simInsts                                    117358097                       # Number of instructions simulated (Count)
simOps                                      124695809                       # Number of ops (including micro ops) simulated (Count)
hostInstRate                                   655864                       # Simulator instruction rate (inst/s) ((Count/Second))
hostOpRate                                     696871                       # Simulator op (including micro ops) rate (op/s) ((Count/Second))
system.clk_domain.clock                          1000                       # Clock period in ticks (Tick)
system.cpu.numCycles                        101745040                       # Number of cpu cycles simulated (Cycle)
system.cpu.numWorkItemsStarted                      0                       # Number of work items this cpu started (Count)
system.cpu.numWorkItemsCompleted                    0                       # Number of work items this cpu completed (Count)
system.cpu.instsAdded                       129812921                       # Number of instructions added to the IQ (excludes non-spec) (Count)
system.cpu.nonSpecInstsAdded                   196969                       # Number of non-speculative instructions added to the IQ (Count)
system.cpu.instsIssued                      129792044                       # Number of instructions issued (Count)
system.cpu.squashedInstsIssued                 230822                       # Number of squashed instructions issued (Count)
system.cpu.squashedInstsExamined              5314080                       # Number of squashed instructions iterated over during squash; mainly for profiling (Count)
system.cpu.squashedOperandsExamined           4245452                       # Number of squashed operands that are examined and possibly removed from graph (Count)
system.cpu.squashedNonSpecRemoved                 159                       # Number of squashed non-spec instructions that were removed (Count)
system.cpu.numIssuedDist::samples           101436080                       # Number of insts issued each cycle (Count)
system.cpu.numIssuedDist::mean               1.279545                       # Number of insts issued each cycle (Count)
system.cpu.numIssuedDist::stdev              1.807929                       # Number of insts issued each cycle (Count)
system.cpu.numIssuedDist::underflows                0      0.00%      0.00% # Number of insts issued each cycle (Count)
system.cpu.numIssuedDist::0                  53100624     52.35%     52.35% # Number of insts issued each cycle (Count)
system.cpu.numIssuedDist::1                  16050496     15.82%     68.17% # Number of insts issued each cycle (Count)
system.cpu.numIssuedDist::2                  10589290     10.44%     78.61% # Number of insts issued each cycle (Count)
system.cpu.numIssuedDist::3                   8633084      8.51%     87.12% # Number of insts issued each cycle (Count)
system.cpu.numIssuedDist::4                   6011277      5.93%     93.05% # Number of insts issued each cycle (Count)
system.cpu.numIssuedDist::5                   2835409      2.80%     95.84% # Number of insts issued each cycle (Count)
system.cpu.numIssuedDist::6                   1962758      1.93%     97.78% # Number of insts issued each cycle (Count)
system.cpu.numIssuedDist::7                   1360121      1.34%     99.12% # Number of insts issued each cycle (Count)
system.cpu.numIssuedDist::8                    893021      0.88%    100.00% # Number of insts issued each cycle (Count)
system.cpu.numIssuedDist::overflows                 0      0.00%    100.00% # Number of insts issued each cycle (Count)
system.cpu.numIssuedDist::min_value                 0                       # Number of insts issued each cycle (Count)
system.cpu.numIssuedDist::max_value                 8                       # Number of insts issued each cycle (Count)
system.cpu.numIssuedDist::total             101436080                       # Number of insts issued each cycle (Count)
system.cpu.statFuBusy::No_OpClass                   0      0.00%      0.00% # attempts to use FU when none available (Count)
system.cpu.statFuBusy::IntAlu                  297393     10.98%     10.98% # attempts to use FU when none available (Count)
system.cpu.statFuBusy::IntMult                 137761      5.09%     16.07% # attempts to use FU when none available (Count)
system.cpu.statFuBusy::IntDiv                       0      0.00%     16.07% # attempts to use FU when none available (Count)
system.cpu.statFuBusy::FloatAdd                     0      0.00%     16.07% # attempts to use FU when none available (Count)
system.cpu.statFuBusy::FloatCmp                     0      0.00%     16.07% # attempts to use FU when none available (Count)
system.cpu.statFuBusy::FloatCvt                     0      0.00%     16.07% # attempts to use FU when none available (Count)
system.cpu.statFuBusy::FloatMult                    0      0.00%     16.07% # attempts to use FU when none available (Count)
system.cpu.statFuBusy::FloatMultAcc                 0      0.00%     16.07% # attempts to use FU when none available (Count)
system.cpu.statFuBusy::FloatDiv                     0      0.00%     16.07% # attempts to use FU when none available (Count)
system.cpu.statFuBusy::FloatMisc                    0      0.00%     16.07% # attempts to use FU when none available (Count)
system.cpu.statFuBusy::FloatSqrt                    0      0.00%     16.07% # attempts to use FU when none available (Count)
system.cpu.statFuBusy::SimdAdd                      0      0.00%     16.07% # attempts to use FU when none available (Count)
system.cpu.statFuBusy::SimdAddAcc                   0      0.00%     16.07% # attempts to use FU when none available (Count)
system.cpu.statFuBusy::SimdAlu                      1      0.00%     16.07% # attempts to use FU when none available (Count)
system.cpu.statFuBusy::SimdCmp                      5      0.00%     16.07% # attempts to use FU when none available (Count)
system.cpu.statFuBusy::SimdCvt                      0      0.00%     16.07% # attempts to use FU when none available (Count)
system.cpu.statFuBusy::SimdMisc                     0      0.00%     16.07% # attempts to use FU when none available (Count)
system.cpu.statFuBusy::SimdMult                     0      0.00%     16.07% # attempts to use FU when none available (Count)
system.cpu.statFuBusy::SimdMultAcc                  0      0.00%     16.07% # attempts to use FU when none available (Count)
system.cpu.statFuBusy::SimdShift                    0      0.00%     16.07% # attempts to use FU when none available (Count)
system.cpu.statFuBusy::SimdShiftAcc                 0      0.00%     16.07% # attempts to use FU when none available (Count)
system.cpu.statFuBusy::SimdDiv                      0      0.00%     16.07% # attempts to use FU when none available (Count)
system.cpu.statFuBusy::SimdSqrt                     0      0.00%     16.07% # attempts to use FU when none available (Count)
system.cpu.statFuBusy::SimdFloatAdd                 0      0.00%     16.07% # attempts to use FU when none available (Count)
system.cpu.statFuBusy::SimdFloatAlu                 0      0.00%     16.07% # attempts to use FU when none available (Count)
system.cpu.statFuBusy::SimdFloatCmp                 0      0.00%     16.07% # attempts to use FU when none available (Count)
system.cpu.statFuBusy::SimdFloatCvt                 0      0.00%     16.07% # attempts to use FU when none available (Count)
system.cpu.statFuBusy::SimdFloatDiv                 0      0.00%     16.07% # attempts to use FU when none available (Count)
system.cpu.statFuBusy::SimdFloatMisc                0      0.00%     16.07% # attempts to use FU when none available (Count)
system.cpu.statFuBusy::SimdFloatMult                0      0.00%     16.07% # attempts to use FU when none available (Count)
system.cpu.statFuBusy::SimdFloatMultAcc             0      0.00%     16.07% # attempts to use FU when none available (Count)
system.cpu.statFuBusy::SimdFloatSqrt                0      0.00%     16.07% # attempts to use FU when none available (Count)
system.cpu.statFuBusy::SimdReduceAdd                0      0.00%     16.07% # attempts to use FU when none available (Count)
system.cpu.statFuBusy::SimdReduceAlu                0      0.00%     16.07% # attempts to use FU when none available (Count)
system.cpu.statFuBusy::SimdReduceCmp                0      0.00%     16.07% # attempts to use FU when none available (Count)
system.cpu.statFuBusy::SimdFloatReduceAdd            0      0.00%     16.07% # attempts to use FU when none available (Count)
system.cpu.statFuBusy::SimdFloatReduceCmp            0      0.00%     16.07% # attempts to use FU when none available (Count)
system.cpu.statFuBusy::SimdAes                      0      0.00%     16.07% # attempts to use FU when none available (Count)
system.cpu.statFuBusy::SimdAesMix                   0      0.00%     16.07% # attempts to use FU when none available (Count)
system.cpu.statFuBusy::SimdSha1Hash                 0      0.00%     16.07% # attempts to use FU when none available (Count)
system.cpu.statFuBusy::SimdSha1Hash2                0      0.00%     16.07% # attempts to use FU when none available (Count)
system.cpu.statFuBusy::SimdSha256Hash               0      0.00%     16.07% # attempts to use FU when none available (Count)
system.cpu.statFuBusy::SimdSha256Hash2              0      0.00%     16.07% # attempts to use FU when none available (Count)
system.cpu.statFuBusy::SimdShaSigma2                0      0.00%     16.07% # attempts to use FU when none available (Count)
system.cpu.statFuBusy::SimdShaSigma3                0      0.00%     16.07% # attempts to use FU when none available (Count)
system.cpu.statFuBusy::SimdPredAlu                  0      0.00%     16.07% # attempts to use FU when none available (Count)
system.cpu.statFuBusy::MemRead                1146294     42.34%     58.41% # attempts to use FU when none available (Count)
system.cpu.statFuBusy::MemWrite               1125932     41.59%    100.00% # attempts to use FU when none available (Count)
system.cpu.statFuBusy::FloatMemRead                 0      0.00%    100.00% # attempts to use FU when none available (Count)
system.cpu.statFuBusy::FloatMemWrite                0      0.00%    100.00% # attempts to use FU when none available (Count)
system.cpu.statFuBusy::IprAccess                    0      0.00%    100.00% # attempts to use FU when none available (Count)
system.cpu.statFuBusy::InstPrefetch                 0      0.00%    100.00% # attempts to use FU when none available (Count)
system.cpu.statIssuedInstType_0::No_OpClass       131150      0.10%      0.10% # Number of instructions issued per FU type, per thread (Count)
system.cpu.statIssuedInstType_0::IntAlu      76289261     58.78%     58.88% # Number of instructions issued per FU type, per thread (Count)
system.cpu.statIssuedInstType_0::IntMult       601859      0.46%     59.34% # Number of instructions issued per FU type, per thread (Count)
system.cpu.statIssuedInstType_0::IntDiv         25588      0.02%     59.36% # Number of instructions issued per FU type, per thread (Count)
system.cpu.statIssuedInstType_0::FloatAdd      2097974      1.62%     60.98% # Number of instructions issued per FU type, per thread (Count)
system.cpu.statIssuedInstType_0::FloatCmp        32768      0.03%     61.00% # Number of instructions issued per FU type, per thread (Count)
system.cpu.statIssuedInstType_0::FloatCvt            0      0.00%     61.00% # Number of instructions issued per FU type, per thread (Count)
system.cpu.statIssuedInstType_0::FloatMult      2097153      1.62%     62.62% # Number of instructions issued per FU type, per thread (Count)
system.cpu.statIssuedInstType_0::FloatMultAcc            0      0.00%     62.62% # Number of instructions issued per FU type, per thread (Count)
system.cpu.statIssuedInstType_0::FloatDiv            0      0.00%     62.62% # Number of instructions issued per FU type, per thread (Count)
system.cpu.statIssuedInstType_0::FloatMisc        52429      0.04%     62.66% # Number of instructions issued per FU type, per thread (Count)
system.cpu.statIssuedInstType_0::FloatSqrt            0      0.00%     62.66% # Number of instructions issued per FU type, per thread (Count)
system.cpu.statIssuedInstType_0::SimdAdd        65570      0.05%     62.71% # Number of instructions issued per FU type, per thread (Count)
system.cpu.statIssuedInstType_0::SimdAddAcc            0      0.00%     62.71% # Number of instructions issued per FU type, per thread (Count)
system.cpu.statIssuedInstType_0::SimdAlu       131130      0.10%     62.81% # Number of instructions issued per FU type, per thread (Count)
system.cpu.statIssuedInstType_0::SimdCmp       131128      0.10%     62.91% # Number of instructions issued per FU type, per thread (Count)
system.cpu.statIssuedInstType_0::SimdCvt            0      0.00%     62.91% # Number of instructions issued per FU type, per thread (Count)
system.cpu.statIssuedInstType_0::SimdMisc       130288      0.10%     63.01% # Number of instructions issued per FU type, per thread (Count)
system.cpu.statIssuedInstType_0::SimdMult            0      0.00%     63.01% # Number of instructions issued per FU type, per thread (Count)
system.cpu.statIssuedInstType_0::SimdMultAcc            0      0.00%     63.01% # Number of instructions issued per FU type, per thread (Count)
system.cpu.statIssuedInstType_0::SimdShift            0      0.00%     63.01% # Number of instructions issued per FU type, per thread (Count)
system.cpu.statIssuedInstType_0::SimdShiftAcc            0      0.00%     63.01% # Number of instructions issued per FU type, per thread (Count)
system.cpu.statIssuedInstType_0::SimdDiv            0      0.00%     63.01% # Number of instructions issued per FU type, per thread (Count)
system.cpu.statIssuedInstType_0::SimdSqrt            0      0.00%     63.01% # Number of instructions issued per FU type, per thread (Count)
system.cpu.statIssuedInstType_0::SimdFloatAdd            0      0.00%     63.01% # Number of instructions issued per FU type, per thread (Count)
system.cpu.statIssuedInstType_0::SimdFloatAlu            0      0.00%     63.01% # Number of instructions issued per FU type, per thread (Count)
system.cpu.statIssuedInstType_0::SimdFloatCmp            0      0.00%     63.01% # Number of instructions issued per FU type, per thread (Count)
system.cpu.statIssuedInstType_0::SimdFloatCvt            0      0.00%     63.01% # Number of instructions issued per FU type, per thread (Count)
system.cpu.statIssuedInstType_0::SimdFloatDiv            0      0.00%     63.01% # Number of instructions issued per FU type, per thread (Count)
system.cpu.statIssuedInstType_0::SimdFloatMisc            0      0.00%     63.01% # Number of instructions issued per FU type, per thread (Count)
system.cpu.statIssuedInstType_0::SimdFloatMult            0      0.00%     63.01% # Number of instructions issued per FU type, per thread (Count)
system.cpu.statIssuedInstType_0::SimdFloatMultAcc            0      0.00%     63.01% # Number of instructions issued per FU type, per thread (Count)
system.cpu.statIssuedInstType_0::SimdFloatSqrt            0      0.00%     63.01% # Number of instructions issued per FU type, per thread (Count)
system.cpu.statIssuedInstType_0::SimdReduceAdd            0      0.00%     63.01% # Number of instructions issued per FU type, per thread (Count)
system.cpu.statIssuedInstType_0::SimdReduceAlu            0      0.00%     63.01% # Number of instructions issued per FU type, per thread (Count)
system.cpu.statIssuedInstType_0::SimdReduceCmp            0      0.00%     63.01% # Number of instructions issued per FU type, per thread (Count)
system.cpu.statIssuedInstType_0::SimdFloatReduceAdd            0      0.00%     63.01% # Number of instructions issued per FU type, per thread (Count)
system.cpu.statIssuedInstType_0::SimdFloatReduceCmp            0      0.00%     63.01% # Number of instructions issued per FU type, per thread (Count)
system.cpu.statIssuedInstType_0::SimdAes            0      0.00%     63.01% # Number of instructions issued per FU type, per thread (Count)
system.cpu.statIssuedInstType_0::SimdAesMix            0      0.00%     63.01% # Number of instructions issued per FU type, per thread (Count)
system.cpu.statIssuedInstType_0::SimdSha1Hash            0      0.00%     63.01% # Number of instructions issued per FU type, per thread (Count)
system.cpu.statIssuedInstType_0::SimdSha1Hash2            0      0.00%     63.01% # Number of instructions issued per FU type, per thread (Count)
system.cpu.statIssuedInstType_0::SimdSha256Hash            0      0.00%     63.01% # Number of instructions issued per FU type, per thread (Count)
system.cpu.statIssuedInstType_0::SimdSha256Hash2            0      0.00%     63.01% # Number of instructions issued per FU type, per thread (Count)
system.cpu.statIssuedInstType_0::SimdShaSigma2            0      0.00%     63.01% # Number of instructions issued per FU type, per thread (Count)
system.cpu.statIssuedInstType_0::SimdShaSigma3            0      0.00%     63.01% # Number of instructions issued per FU type, per thread (Count)
system.cpu.statIssuedInstType_0::SimdPredAlu            0      0.00%     63.01% # Number of instructions issued per FU type, per thread (Count)
system.cpu.statIssuedInstType_0::MemRead     32745463     25.23%     88.24% # Number of instructions issued per FU type, per thread (Count)
system.cpu.statIssuedInstType_0::MemWrite     15260283     11.76%    100.00% # Number of instructions issued per FU type, per thread (Count)
system.cpu.statIssuedInstType_0::FloatMemRead            0      0.00%    100.00% # Number of instructions issued per FU type, per thread (Count)
system.cpu.statIssuedInstType_0::FloatMemWrite            0      0.00%    100.00% # Number of instructions issued per FU type, per thread (Count)
system.cpu.statIssuedInstType_0::IprAccess            0      0.00%    100.00% # Number of instructions issued per FU type, per thread (Count)
system.cpu.statIssuedInstType_0::InstPrefetch            0      0.00%    100.00% # Number of instructions issued per FU type, per thread (Count)
system.cpu.statIssuedInstType_0::total      129792044                       # Number of instructions issued per FU type, per thread (Count)
system.cpu.issueRate                         1.275660                       # Inst issue rate ((Count/Cycle))
system.cpu.fuBusy                             2707386                       # FU busy when requested (Count)
system.cpu.fuBusyRate                        0.020859                       # FU busy rate (busy events/executed inst) ((Count/Count))
system.cpu.intInstQueueReads                333816859                       # Number of integer instruction queue reads (Count)
system.cpu.intInstQueueWrites               119262517                       # Number of integer instruction queue writes (Count)
system.cpu.intInstQueueWakeupAccesses       113689873                       # Number of integer instruction queue wakeup accesses (Count)
system.cpu.fpInstQueueReads                         0                       # Number of floating instruction queue reads (Count)
system.cpu.fpInstQueueWrites                        0                       # Number of floating instruction queue writes (Count)
system.cpu.fpInstQueueWakeupAccesses                0                       # Number of floating instruction queue wakeup accesses (Count)
system.cpu.vecInstQueueReads                 30141517                       # Number of vector instruction queue reads (Count)
system.cpu.vecInstQueueWrites                16134164                       # Number of vector instruction queue writes (Count)
system.cpu.vecInstQueueWakeupAccesses        14524314                       # Number of vector instruction queue wakeup accesses (Count)
system.cpu.intAluAccesses                   117262258                       # Number of integer alu accesses (Count)
system.cpu.fpAluAccesses                            0                       # Number of floating point alu accesses (Count)
system.cpu.vecAluAccesses                    15106022                       # Number of vector alu accesses (Count)
system.cpu.numInsts                         129406670                       # Number of executed instructions (Count)
system.cpu.numLoadInsts                      32660477                       # Number of load instructions executed (Count)
system.cpu.numSquashedInsts                    385374                       # Number of squashed instructions skipped in execute (Count)
system.cpu.numSwp                                   0                       # Number of swp insts executed (Count)
system.cpu.numNop                              102159                       # Number of nop insts executed (Count)
system.cpu.numRefs                           47714886                       # Number of memory reference insts executed (Count)
system.cpu.numBranches                       16894935                       # Number of branches executed (Count)
system.cpu.numStoreInsts                     15054409                       # Number of stores executed (Count)
system.cpu.numRate                           1.271872                       # Inst execution rate ((Count/Cycle))
system.cpu.timesIdled                           12400                       # Number of times that the entire CPU went into an idle state and unscheduled itself (Count)
system.cpu.idleCycles                          308960                       # Total number of cycles that the CPU has spent unscheduled due to idling (Cycle)
system.cpu.committedInsts                   117358097                       # Number of Instructions Simulated (Count)
system.cpu.committedOps                     124695809                       # Number of Ops (including micro ops) Simulated (Count)
system.cpu.cpi                               0.866962                       # CPI: Cycles Per Instruction ((Cycle/Count))
system.cpu.totalCpi                          0.866962                       # CPI: Total CPI of All Threads ((Cycle/Count))
system.cpu.ipc                               1.153453                       # IPC: Instructions Per Cycle ((Count/Cycle))
system.cpu.totalIpc                          1.153453                       # IPC: Total IPC of All Threads ((Count/Cycle))
system.cpu.intRegfileReads                  143979531                       # Number of integer regfile reads (Count)
system.cpu.intRegfileWrites                  87655267                       # Number of integer regfile writes (Count)
system.cpu.vecRegfileReads                   12541317                       # number of vector regfile reads (Count)
system.cpu.vecRegfileWrites                  11188670                       # number of vector regfile writes (Count)
system.cpu.ccRegfileReads                    29465301                       # number of cc regfile reads (Count)
system.cpu.ccRegfileWrites                   29285663                       # number of cc regfile writes (Count)
system.cpu.miscRegfileReads                 279154884                       # number of misc regfile reads (Count)
system.cpu.miscRegfileWrites                  4441033                       # number of misc regfile writes (Count)
system.cpu.MemDepUnit__0.insertedLoads       31907076                       # Number of loads inserted to the mem dependence unit. (Count)
system.cpu.MemDepUnit__0.insertedStores      15832527                       # Number of stores inserted to the mem dependence unit. (Count)
system.cpu.MemDepUnit__0.conflictingLoads      9955263                       # Number of conflicting loads. (Count)
system.cpu.MemDepUnit__0.conflictingStores      3494216                       # Number of conflicting stores. (Count)
system.cpu.MemDepUnit__1.insertedLoads              0                       # Number of loads inserted to the mem dependence unit. (Count)
system.cpu.MemDepUnit__1.insertedStores             0                       # Number of stores inserted to the mem dependence unit. (Count)
system.cpu.MemDepUnit__1.conflictingLoads            0                       # Number of conflicting loads. (Count)
system.cpu.MemDepUnit__1.conflictingStores            0                       # Number of conflicting stores. (Count)
system.cpu.MemDepUnit__2.insertedLoads              0                       # Number of loads inserted to the mem dependence unit. (Count)
system.cpu.MemDepUnit__2.insertedStores             0                       # Number of stores inserted to the mem dependence unit. (Count)
system.cpu.MemDepUnit__2.conflictingLoads            0                       # Number of conflicting loads. (Count)
system.cpu.MemDepUnit__2.conflictingStores            0                       # Number of conflicting stores. (Count)
system.cpu.MemDepUnit__3.insertedLoads              0                       # Number of loads inserted to the mem dependence unit. (Count)
system.cpu.MemDepUnit__3.insertedStores             0                       # Number of stores inserted to the mem dependence unit. (Count)
system.cpu.MemDepUnit__3.conflictingLoads            0                       # Number of conflicting loads. (Count)
system.cpu.MemDepUnit__3.conflictingStores            0                       # Number of conflicting stores. (Count)
system.cpu.branchPred.lookups                17358374                       # Number of BP lookups (Count)
system.cpu.branchPred.condPredicted          12014845                       # Number of conditional branches predicted (Count)
system.cpu.branchPred.condIncorrect             79779                       # Number of conditional branches incorrect (Count)
system.cpu.branchPred.BTBLookups              8378292                       # Number of BTB lookups (Count)
system.cpu.branchPred.BTBHits                 8370315                       # Number of BTB hits (Count)
system.cpu.branchPred.BTBHitRatio            0.999048                       # BTB Hit Ratio (Ratio)
system.cpu.branchPred.RASUsed                  858956                       # Number of times the RAS was used to get a target. (Count)
system.cpu.branchPred.RASIncorrect                 25                       # Number of incorrect RAS predictions. (Count)
system.cpu.branchPred.indirectLookups          203230                       # Number of indirect predictor lookups. (Count)
system.cpu.branchPred.indirectHits             188058                       # Number of indirect target hits. (Count)
system.cpu.branchPred.indirectMisses            15172                       # Number of indirect misses. (Count)
system.cpu.branchPred.indirectMispredicted          198                       # Number of mispredicted indirect branches. (Count)
system.cpu.commit.commitSquashedInsts         5323341                       # The number of squashed insts skipped by commit (Count)
system.cpu.commit.commitNonSpecStalls          196810                       # The number of times commit has been forced to stall to communicate backwards (Count)
system.cpu.commit.branchMispredicts             77843                       # The number of times a branch was mispredicted (Count)
system.cpu.commit.numCommittedDist::samples    100705905                       # Number of insts commited each cycle (Count)
system.cpu.commit.numCommittedDist::mean     1.239213                       # Number of insts commited each cycle (Count)
system.cpu.commit.numCommittedDist::stdev     2.495759                       # Number of insts commited each cycle (Count)
system.cpu.commit.numCommittedDist::underflows            0      0.00%      0.00% # Number of insts commited each cycle (Count)
system.cpu.commit.numCommittedDist::0        69946235     69.46%     69.46% # Number of insts commited each cycle (Count)
system.cpu.commit.numCommittedDist::1        10119022     10.05%     79.50% # Number of insts commited each cycle (Count)
system.cpu.commit.numCommittedDist::2         5030348      5.00%     84.50% # Number of insts commited each cycle (Count)
system.cpu.commit.numCommittedDist::3         1913169      1.90%     86.40% # Number of insts commited each cycle (Count)
system.cpu.commit.numCommittedDist::4          836559      0.83%     87.23% # Number of insts commited each cycle (Count)
system.cpu.commit.numCommittedDist::5          553653      0.55%     87.78% # Number of insts commited each cycle (Count)
system.cpu.commit.numCommittedDist::6         2497035      2.48%     90.26% # Number of insts commited each cycle (Count)
system.cpu.commit.numCommittedDist::7          698925      0.69%     90.95% # Number of insts commited each cycle (Count)
system.cpu.commit.numCommittedDist::8         9110959      9.05%    100.00% # Number of insts commited each cycle (Count)
system.cpu.commit.numCommittedDist::overflows            0      0.00%    100.00% # Number of insts commited each cycle (Count)
system.cpu.commit.numCommittedDist::min_value            0                       # Number of insts commited each cycle (Count)
system.cpu.commit.numCommittedDist::max_value            8                       # Number of insts commited each cycle (Count)
system.cpu.commit.numCommittedDist::total    100705905                       # Number of insts commited each cycle (Count)
system.cpu.commit.instsCommitted            117458371                       # Number of instructions committed (Count)
system.cpu.commit.opsCommitted              124796083                       # Number of ops (including micro ops) committed (Count)
system.cpu.commit.memRefs                    45169464                       # Number of memory references committed (Count)
system.cpu.commit.loads                      31014863                       # Number of loads committed (Count)
system.cpu.commit.amos                          98358                       # Number of atomic instructions committed (Count)
system.cpu.commit.membars                       98368                       # Number of memory barriers committed (Count)
system.cpu.commit.branches                   16637621                       # Number of branches committed (Count)
system.cpu.commit.vectorInstructions         14142056                       # Number of committed Vector instructions. (Count)
system.cpu.commit.floating                          0                       # Number of committed floating point instructions. (Count)
system.cpu.commit.integer                   108933466                       # Number of committed integer instructions. (Count)
system.cpu.commit.functionCalls                844591                       # Number of function calls committed. (Count)
system.cpu.commit.committedInstType_0::No_OpClass       131141      0.11%      0.11% # Class of committed instruction (Count)
system.cpu.commit.committedInstType_0::IntAlu     74130848     59.40%     59.51% # Class of committed instruction (Count)
system.cpu.commit.committedInstType_0::IntMult       601583      0.48%     59.99% # Class of committed instruction (Count)
system.cpu.commit.committedInstType_0::IntDiv        25526      0.02%     60.01% # Class of committed instruction (Count)
system.cpu.commit.committedInstType_0::FloatAdd      2097972      1.68%     61.69% # Class of committed instruction (Count)
system.cpu.commit.committedInstType_0::FloatCmp        32768      0.03%     61.72% # Class of committed instruction (Count)
system.cpu.commit.committedInstType_0::FloatCvt            0      0.00%     61.72% # Class of committed instruction (Count)
system.cpu.commit.committedInstType_0::FloatMult      2097152      1.68%     63.40% # Class of committed instruction (Count)
system.cpu.commit.committedInstType_0::FloatMultAcc            0      0.00%     63.40% # Class of committed instruction (Count)
system.cpu.commit.committedInstType_0::FloatDiv            0      0.00%     63.40% # Class of committed instruction (Count)
system.cpu.commit.committedInstType_0::FloatMisc        51612      0.04%     63.44% # Class of committed instruction (Count)
system.cpu.commit.committedInstType_0::FloatSqrt            0      0.00%     63.44% # Class of committed instruction (Count)
system.cpu.commit.committedInstType_0::SimdAdd        65556      0.05%     63.49% # Class of committed instruction (Count)
system.cpu.commit.committedInstType_0::SimdAddAcc            0      0.00%     63.49% # Class of committed instruction (Count)
system.cpu.commit.committedInstType_0::SimdAlu       131098      0.11%     63.60% # Class of committed instruction (Count)
system.cpu.commit.committedInstType_0::SimdCmp       131092      0.11%     63.70% # Class of committed instruction (Count)
system.cpu.commit.committedInstType_0::SimdCvt            0      0.00%     63.70% # Class of committed instruction (Count)
system.cpu.commit.committedInstType_0::SimdMisc       130271      0.10%     63.81% # Class of committed instruction (Count)
system.cpu.commit.committedInstType_0::SimdMult            0      0.00%     63.81% # Class of committed instruction (Count)
system.cpu.commit.committedInstType_0::SimdMultAcc            0      0.00%     63.81% # Class of committed instruction (Count)
system.cpu.commit.committedInstType_0::SimdShift            0      0.00%     63.81% # Class of committed instruction (Count)
system.cpu.commit.committedInstType_0::SimdShiftAcc            0      0.00%     63.81% # Class of committed instruction (Count)
system.cpu.commit.committedInstType_0::SimdDiv            0      0.00%     63.81% # Class of committed instruction (Count)
system.cpu.commit.committedInstType_0::SimdSqrt            0      0.00%     63.81% # Class of committed instruction (Count)
system.cpu.commit.committedInstType_0::SimdFloatAdd            0      0.00%     63.81% # Class of committed instruction (Count)
system.cpu.commit.committedInstType_0::SimdFloatAlu            0      0.00%     63.81% # Class of committed instruction (Count)
system.cpu.commit.committedInstType_0::SimdFloatCmp            0      0.00%     63.81% # Class of committed instruction (Count)
system.cpu.commit.committedInstType_0::SimdFloatCvt            0      0.00%     63.81% # Class of committed instruction (Count)
system.cpu.commit.committedInstType_0::SimdFloatDiv            0      0.00%     63.81% # Class of committed instruction (Count)
system.cpu.commit.committedInstType_0::SimdFloatMisc            0      0.00%     63.81% # Class of committed instruction (Count)
system.cpu.commit.committedInstType_0::SimdFloatMult            0      0.00%     63.81% # Class of committed instruction (Count)
system.cpu.commit.committedInstType_0::SimdFloatMultAcc            0      0.00%     63.81% # Class of committed instruction (Count)
system.cpu.commit.committedInstType_0::SimdFloatSqrt            0      0.00%     63.81% # Class of committed instruction (Count)
system.cpu.commit.committedInstType_0::SimdReduceAdd            0      0.00%     63.81% # Class of committed instruction (Count)
system.cpu.commit.committedInstType_0::SimdReduceAlu            0      0.00%     63.81% # Class of committed instruction (Count)
system.cpu.commit.committedInstType_0::SimdReduceCmp            0      0.00%     63.81% # Class of committed instruction (Count)
system.cpu.commit.committedInstType_0::SimdFloatReduceAdd            0      0.00%     63.81% # Class of committed instruction (Count)
system.cpu.commit.committedInstType_0::SimdFloatReduceCmp            0      0.00%     63.81% # Class of committed instruction (Count)
system.cpu.commit.committedInstType_0::SimdAes            0      0.00%     63.81% # Class of committed instruction (Count)
system.cpu.commit.committedInstType_0::SimdAesMix            0      0.00%     63.81% # Class of committed instruction (Count)
system.cpu.commit.committedInstType_0::SimdSha1Hash            0      0.00%     63.81% # Class of committed instruction (Count)
system.cpu.commit.committedInstType_0::SimdSha1Hash2            0      0.00%     63.81% # Class of committed instruction (Count)
system.cpu.commit.committedInstType_0::SimdSha256Hash            0      0.00%     63.81% # Class of committed instruction (Count)
system.cpu.commit.committedInstType_0::SimdSha256Hash2            0      0.00%     63.81% # Class of committed instruction (Count)
system.cpu.commit.committedInstType_0::SimdShaSigma2            0      0.00%     63.81% # Class of committed instruction (Count)
system.cpu.commit.committedInstType_0::SimdShaSigma3            0      0.00%     63.81% # Class of committed instruction (Count)
system.cpu.commit.committedInstType_0::SimdPredAlu            0      0.00%     63.81% # Class of committed instruction (Count)
system.cpu.commit.committedInstType_0::MemRead     31014863     24.85%     88.66% # Class of committed instruction (Count)
system.cpu.commit.committedInstType_0::MemWrite     14154601     11.34%    100.00% # Class of committed instruction (Count)
system.cpu.commit.committedInstType_0::FloatMemRead            0      0.00%    100.00% # Class of committed instruction (Count)
system.cpu.commit.committedInstType_0::FloatMemWrite            0      0.00%    100.00% # Class of committed instruction (Count)
system.cpu.commit.committedInstType_0::IprAccess            0      0.00%    100.00% # Class of committed instruction (Count)
system.cpu.commit.committedInstType_0::InstPrefetch            0      0.00%    100.00% # Class of committed instruction (Count)
system.cpu.commit.committedInstType_0::total    124796083                       # Class of committed instruction (Count)
system.cpu.commit.commitEligibleSamples       9110959                       # number cycles where commit BW limit reached (Cycle)
system.cpu.dcache.demandHits::cpu.data       31792776                       # number of demand (read+write) hits (Count)
system.cpu.dcache.demandHits::total          31792776                       # number of demand (read+write) hits (Count)
system.cpu.dcache.overallHits::cpu.data      31831524                       # number of overall hits (Count)
system.cpu.dcache.overallHits::total         31831524                       # number of overall hits (Count)
system.cpu.dcache.demandMisses::cpu.data      2186074                       # number of demand (read+write) misses (Count)
system.cpu.dcache.demandMisses::total         2186074                       # number of demand (read+write) misses (Count)
system.cpu.dcache.overallMisses::cpu.data      2186078                       # number of overall misses (Count)
system.cpu.dcache.overallMisses::total        2186078                       # number of overall misses (Count)
system.cpu.dcache.demandMissLatency::cpu.data 126864911609                       # number of demand (read+write) miss ticks (Tick)
system.cpu.dcache.demandMissLatency::total 126864911609                       # number of demand (read+write) miss ticks (Tick)
system.cpu.dcache.overallMissLatency::cpu.data 126864911609                       # number of overall miss ticks (Tick)
system.cpu.dcache.overallMissLatency::total 126864911609                       # number of overall miss ticks (Tick)
system.cpu.dcache.demandAccesses::cpu.data     33978850                       # number of demand (read+write) accesses (Count)
system.cpu.dcache.demandAccesses::total      33978850                       # number of demand (read+write) accesses (Count)
system.cpu.dcache.overallAccesses::cpu.data     34017602                       # number of overall (read+write) accesses (Count)
system.cpu.dcache.overallAccesses::total     34017602                       # number of overall (read+write) accesses (Count)
system.cpu.dcache.demandMissRate::cpu.data     0.064336                       # miss rate for demand accesses (Ratio)
system.cpu.dcache.demandMissRate::total      0.064336                       # miss rate for demand accesses (Ratio)
system.cpu.dcache.overallMissRate::cpu.data     0.064263                       # miss rate for overall accesses (Ratio)
system.cpu.dcache.overallMissRate::total     0.064263                       # miss rate for overall accesses (Ratio)
system.cpu.dcache.demandAvgMissLatency::cpu.data 58033.219191                       # average overall miss latency ((Cycle/Count))
system.cpu.dcache.demandAvgMissLatency::total 58033.219191                       # average overall miss latency ((Cycle/Count))
system.cpu.dcache.overallAvgMissLatency::cpu.data 58033.113004                       # average overall miss latency ((Cycle/Count))
system.cpu.dcache.overallAvgMissLatency::total 58033.113004                       # average overall miss latency ((Cycle/Count))
system.cpu.dcache.blockedCycles::no_mshrs     40150644                       # number of cycles access was blocked (Cycle)
system.cpu.dcache.blockedCycles::no_targets            0                       # number of cycles access was blocked (Cycle)
system.cpu.dcache.blockedCauses::no_mshrs       814937                       # number of times access was blocked (Count)
system.cpu.dcache.blockedCauses::no_targets            0                       # number of times access was blocked (Count)
system.cpu.dcache.avgBlocked::no_mshrs      49.268402                       # average number of cycles each access was blocked ((Cycle/Count))
system.cpu.dcache.avgBlocked::no_targets          nan                       # average number of cycles each access was blocked ((Cycle/Count))
system.cpu.dcache.writebacks::writebacks        21167                       # number of writebacks (Count)
system.cpu.dcache.writebacks::total             21167                       # number of writebacks (Count)
system.cpu.dcache.demandMshrHits::cpu.data        44747                       # number of demand (read+write) MSHR hits (Count)
system.cpu.dcache.demandMshrHits::total         44747                       # number of demand (read+write) MSHR hits (Count)
system.cpu.dcache.overallMshrHits::cpu.data        44747                       # number of overall MSHR hits (Count)
system.cpu.dcache.overallMshrHits::total        44747                       # number of overall MSHR hits (Count)
system.cpu.dcache.demandMshrMisses::cpu.data      2141327                       # number of demand (read+write) MSHR misses (Count)
system.cpu.dcache.demandMshrMisses::total      2141327                       # number of demand (read+write) MSHR misses (Count)
system.cpu.dcache.overallMshrMisses::cpu.data      2141331                       # number of overall MSHR misses (Count)
system.cpu.dcache.overallMshrMisses::total      2141331                       # number of overall MSHR misses (Count)
system.cpu.dcache.demandMshrMissLatency::cpu.data 123165509655                       # number of demand (read+write) MSHR miss ticks (Tick)
system.cpu.dcache.demandMshrMissLatency::total 123165509655                       # number of demand (read+write) MSHR miss ticks (Tick)
system.cpu.dcache.overallMshrMissLatency::cpu.data 123165795655                       # number of overall MSHR miss ticks (Tick)
system.cpu.dcache.overallMshrMissLatency::total 123165795655                       # number of overall MSHR miss ticks (Tick)
system.cpu.dcache.demandMshrMissRate::cpu.data     0.063019                       # mshr miss ratio for demand accesses (Ratio)
system.cpu.dcache.demandMshrMissRate::total     0.063019                       # mshr miss ratio for demand accesses (Ratio)
system.cpu.dcache.overallMshrMissRate::cpu.data     0.062948                       # mshr miss ratio for overall accesses (Ratio)
system.cpu.dcache.overallMshrMissRate::total     0.062948                       # mshr miss ratio for overall accesses (Ratio)
system.cpu.dcache.demandAvgMshrMissLatency::cpu.data 57518.309747                       # average overall mshr miss latency ((Cycle/Count))
system.cpu.dcache.demandAvgMshrMissLatency::total 57518.309747                       # average overall mshr miss latency ((Cycle/Count))
system.cpu.dcache.overallAvgMshrMissLatency::cpu.data 57518.335864                       # average overall mshr miss latency ((Cycle/Count))
system.cpu.dcache.overallAvgMshrMissLatency::total 57518.335864                       # average overall mshr miss latency ((Cycle/Count))
system.cpu.dcache.replacements                2140310                       # number of replacements (Count)
system.cpu.dcache.LoadLockedReq.hits::cpu.data           36                       # number of LoadLockedReq hits (Count)
system.cpu.dcache.LoadLockedReq.hits::total           36                       # number of LoadLockedReq hits (Count)
system.cpu.dcache.LoadLockedReq.misses::cpu.data            6                       # number of LoadLockedReq misses (Count)
system.cpu.dcache.LoadLockedReq.misses::total            6                       # number of LoadLockedReq misses (Count)
system.cpu.dcache.LoadLockedReq.missLatency::cpu.data       441500                       # number of LoadLockedReq miss ticks (Tick)
system.cpu.dcache.LoadLockedReq.missLatency::total       441500                       # number of LoadLockedReq miss ticks (Tick)
system.cpu.dcache.LoadLockedReq.accesses::cpu.data           42                       # number of LoadLockedReq accesses(hits+misses) (Count)
system.cpu.dcache.LoadLockedReq.accesses::total           42                       # number of LoadLockedReq accesses(hits+misses) (Count)
system.cpu.dcache.LoadLockedReq.missRate::cpu.data     0.142857                       # miss rate for LoadLockedReq accesses (Ratio)
system.cpu.dcache.LoadLockedReq.missRate::total     0.142857                       # miss rate for LoadLockedReq accesses (Ratio)
system.cpu.dcache.LoadLockedReq.avgMissLatency::cpu.data 73583.333333                       # average LoadLockedReq miss latency ((Tick/Count))
system.cpu.dcache.LoadLockedReq.avgMissLatency::total 73583.333333                       # average LoadLockedReq miss latency ((Tick/Count))
system.cpu.dcache.LoadLockedReq.mshrHits::cpu.data            3                       # number of LoadLockedReq MSHR hits (Count)
system.cpu.dcache.LoadLockedReq.mshrHits::total            3                       # number of LoadLockedReq MSHR hits (Count)
system.cpu.dcache.LoadLockedReq.mshrMisses::cpu.data            3                       # number of LoadLockedReq MSHR misses (Count)
system.cpu.dcache.LoadLockedReq.mshrMisses::total            3                       # number of LoadLockedReq MSHR misses (Count)
system.cpu.dcache.LoadLockedReq.mshrMissLatency::cpu.data       240500                       # number of LoadLockedReq MSHR miss ticks (Tick)
system.cpu.dcache.LoadLockedReq.mshrMissLatency::total       240500                       # number of LoadLockedReq MSHR miss ticks (Tick)
system.cpu.dcache.LoadLockedReq.mshrMissRate::cpu.data     0.071429                       # mshr miss rate for LoadLockedReq accesses (Ratio)
system.cpu.dcache.LoadLockedReq.mshrMissRate::total     0.071429                       # mshr miss rate for LoadLockedReq accesses (Ratio)
system.cpu.dcache.LoadLockedReq.avgMshrMissLatency::cpu.data 80166.666667                       # average LoadLockedReq mshr miss latency ((Tick/Count))
system.cpu.dcache.LoadLockedReq.avgMshrMissLatency::total 80166.666667                       # average LoadLockedReq mshr miss latency ((Tick/Count))
system.cpu.dcache.ReadReq.hits::cpu.data     17760400                       # number of ReadReq hits (Count)
system.cpu.dcache.ReadReq.hits::total        17760400                       # number of ReadReq hits (Count)
system.cpu.dcache.ReadReq.misses::cpu.data      2162209                       # number of ReadReq misses (Count)
system.cpu.dcache.ReadReq.misses::total       2162209                       # number of ReadReq misses (Count)
system.cpu.dcache.ReadReq.missLatency::cpu.data 125983410500                       # number of ReadReq miss ticks (Tick)
system.cpu.dcache.ReadReq.missLatency::total 125983410500                       # number of ReadReq miss ticks (Tick)
system.cpu.dcache.ReadReq.accesses::cpu.data     19922609                       # number of ReadReq accesses(hits+misses) (Count)
system.cpu.dcache.ReadReq.accesses::total     19922609                       # number of ReadReq accesses(hits+misses) (Count)
system.cpu.dcache.ReadReq.missRate::cpu.data     0.108530                       # miss rate for ReadReq accesses (Ratio)
system.cpu.dcache.ReadReq.missRate::total     0.108530                       # miss rate for ReadReq accesses (Ratio)
system.cpu.dcache.ReadReq.avgMissLatency::cpu.data 58266.065168                       # average ReadReq miss latency ((Tick/Count))
system.cpu.dcache.ReadReq.avgMissLatency::total 58266.065168                       # average ReadReq miss latency ((Tick/Count))
system.cpu.dcache.ReadReq.mshrHits::cpu.data        42143                       # number of ReadReq MSHR hits (Count)
system.cpu.dcache.ReadReq.mshrHits::total        42143                       # number of ReadReq MSHR hits (Count)
system.cpu.dcache.ReadReq.mshrMisses::cpu.data      2120066                       # number of ReadReq MSHR misses (Count)
system.cpu.dcache.ReadReq.mshrMisses::total      2120066                       # number of ReadReq MSHR misses (Count)
system.cpu.dcache.ReadReq.mshrMissLatency::cpu.data 122414599500                       # number of ReadReq MSHR miss ticks (Tick)
system.cpu.dcache.ReadReq.mshrMissLatency::total 122414599500                       # number of ReadReq MSHR miss ticks (Tick)
system.cpu.dcache.ReadReq.mshrMissRate::cpu.data     0.106415                       # mshr miss rate for ReadReq accesses (Ratio)
system.cpu.dcache.ReadReq.mshrMissRate::total     0.106415                       # mshr miss rate for ReadReq accesses (Ratio)
system.cpu.dcache.ReadReq.avgMshrMissLatency::cpu.data 57740.938018                       # average ReadReq mshr miss latency ((Tick/Count))
system.cpu.dcache.ReadReq.avgMshrMissLatency::total 57740.938018                       # average ReadReq mshr miss latency ((Tick/Count))
system.cpu.dcache.SoftPFReq.hits::cpu.data        38748                       # number of SoftPFReq hits (Count)
system.cpu.dcache.SoftPFReq.hits::total         38748                       # number of SoftPFReq hits (Count)
system.cpu.dcache.SoftPFReq.misses::cpu.data            4                       # number of SoftPFReq misses (Count)
system.cpu.dcache.SoftPFReq.misses::total            4                       # number of SoftPFReq misses (Count)
system.cpu.dcache.SoftPFReq.accesses::cpu.data        38752                       # number of SoftPFReq accesses(hits+misses) (Count)
system.cpu.dcache.SoftPFReq.accesses::total        38752                       # number of SoftPFReq accesses(hits+misses) (Count)
system.cpu.dcache.SoftPFReq.missRate::cpu.data     0.000103                       # miss rate for SoftPFReq accesses (Ratio)
system.cpu.dcache.SoftPFReq.missRate::total     0.000103                       # miss rate for SoftPFReq accesses (Ratio)
system.cpu.dcache.SoftPFReq.mshrMisses::cpu.data            4                       # number of SoftPFReq MSHR misses (Count)
system.cpu.dcache.SoftPFReq.mshrMisses::total            4                       # number of SoftPFReq MSHR misses (Count)
system.cpu.dcache.SoftPFReq.mshrMissLatency::cpu.data       286000                       # number of SoftPFReq MSHR miss ticks (Tick)
system.cpu.dcache.SoftPFReq.mshrMissLatency::total       286000                       # number of SoftPFReq MSHR miss ticks (Tick)
system.cpu.dcache.SoftPFReq.mshrMissRate::cpu.data     0.000103                       # mshr miss rate for SoftPFReq accesses (Ratio)
system.cpu.dcache.SoftPFReq.mshrMissRate::total     0.000103                       # mshr miss rate for SoftPFReq accesses (Ratio)
system.cpu.dcache.SoftPFReq.avgMshrMissLatency::cpu.data        71500                       # average SoftPFReq mshr miss latency ((Tick/Count))
system.cpu.dcache.SoftPFReq.avgMshrMissLatency::total        71500                       # average SoftPFReq mshr miss latency ((Tick/Count))
system.cpu.dcache.StoreCondReq.hits::cpu.data           10                       # number of StoreCondReq hits (Count)
system.cpu.dcache.StoreCondReq.hits::total           10                       # number of StoreCondReq hits (Count)
system.cpu.dcache.StoreCondReq.accesses::cpu.data           10                       # number of StoreCondReq accesses(hits+misses) (Count)
system.cpu.dcache.StoreCondReq.accesses::total           10                       # number of StoreCondReq accesses(hits+misses) (Count)
system.cpu.dcache.SwapReq.hits::cpu.data        98357                       # number of SwapReq hits (Count)
system.cpu.dcache.SwapReq.hits::total           98357                       # number of SwapReq hits (Count)
system.cpu.dcache.SwapReq.misses::cpu.data            1                       # number of SwapReq misses (Count)
system.cpu.dcache.SwapReq.misses::total             1                       # number of SwapReq misses (Count)
system.cpu.dcache.SwapReq.missLatency::cpu.data        66000                       # number of SwapReq miss ticks (Tick)
system.cpu.dcache.SwapReq.missLatency::total        66000                       # number of SwapReq miss ticks (Tick)
system.cpu.dcache.SwapReq.accesses::cpu.data        98358                       # number of SwapReq accesses(hits+misses) (Count)
system.cpu.dcache.SwapReq.accesses::total        98358                       # number of SwapReq accesses(hits+misses) (Count)
system.cpu.dcache.SwapReq.missRate::cpu.data     0.000010                       # miss rate for SwapReq accesses (Ratio)
system.cpu.dcache.SwapReq.missRate::total     0.000010                       # miss rate for SwapReq accesses (Ratio)
system.cpu.dcache.SwapReq.avgMissLatency::cpu.data        66000                       # average SwapReq miss latency ((Tick/Count))
system.cpu.dcache.SwapReq.avgMissLatency::total        66000                       # average SwapReq miss latency ((Tick/Count))
system.cpu.dcache.SwapReq.mshrHits::cpu.data            1                       # number of SwapReq MSHR hits (Count)
system.cpu.dcache.SwapReq.mshrHits::total            1                       # number of SwapReq MSHR hits (Count)
system.cpu.dcache.WriteLineReq.misses::cpu.data            9                       # number of WriteLineReq misses (Count)
system.cpu.dcache.WriteLineReq.misses::total            9                       # number of WriteLineReq misses (Count)
system.cpu.dcache.WriteLineReq.missLatency::cpu.data        96998                       # number of WriteLineReq miss ticks (Tick)
system.cpu.dcache.WriteLineReq.missLatency::total        96998                       # number of WriteLineReq miss ticks (Tick)
system.cpu.dcache.WriteLineReq.accesses::cpu.data            9                       # number of WriteLineReq accesses(hits+misses) (Count)
system.cpu.dcache.WriteLineReq.accesses::total            9                       # number of WriteLineReq accesses(hits+misses) (Count)
system.cpu.dcache.WriteLineReq.missRate::cpu.data            1                       # miss rate for WriteLineReq accesses (Ratio)
system.cpu.dcache.WriteLineReq.missRate::total            1                       # miss rate for WriteLineReq accesses (Ratio)
system.cpu.dcache.WriteLineReq.avgMissLatency::cpu.data 10777.555556                       # average WriteLineReq miss latency ((Tick/Count))
system.cpu.dcache.WriteLineReq.avgMissLatency::total 10777.555556                       # average WriteLineReq miss latency ((Tick/Count))
system.cpu.dcache.WriteLineReq.mshrMisses::cpu.data            9                       # number of WriteLineReq MSHR misses (Count)
system.cpu.dcache.WriteLineReq.mshrMisses::total            9                       # number of WriteLineReq MSHR misses (Count)
system.cpu.dcache.WriteLineReq.mshrMissLatency::cpu.data        87998                       # number of WriteLineReq MSHR miss ticks (Tick)
system.cpu.dcache.WriteLineReq.mshrMissLatency::total        87998                       # number of WriteLineReq MSHR miss ticks (Tick)
system.cpu.dcache.WriteLineReq.mshrMissRate::cpu.data            1                       # mshr miss rate for WriteLineReq accesses (Ratio)
system.cpu.dcache.WriteLineReq.mshrMissRate::total            1                       # mshr miss rate for WriteLineReq accesses (Ratio)
system.cpu.dcache.WriteLineReq.avgMshrMissLatency::cpu.data  9777.555556                       # average WriteLineReq mshr miss latency ((Tick/Count))
system.cpu.dcache.WriteLineReq.avgMshrMissLatency::total  9777.555556                       # average WriteLineReq mshr miss latency ((Tick/Count))
system.cpu.dcache.WriteReq.hits::cpu.data     14032376                       # number of WriteReq hits (Count)
system.cpu.dcache.WriteReq.hits::total       14032376                       # number of WriteReq hits (Count)
system.cpu.dcache.WriteReq.misses::cpu.data        23856                       # number of WriteReq misses (Count)
system.cpu.dcache.WriteReq.misses::total        23856                       # number of WriteReq misses (Count)
system.cpu.dcache.WriteReq.missLatency::cpu.data    881404111                       # number of WriteReq miss ticks (Tick)
system.cpu.dcache.WriteReq.missLatency::total    881404111                       # number of WriteReq miss ticks (Tick)
system.cpu.dcache.WriteReq.accesses::cpu.data     14056232                       # number of WriteReq accesses(hits+misses) (Count)
system.cpu.dcache.WriteReq.accesses::total     14056232                       # number of WriteReq accesses(hits+misses) (Count)
system.cpu.dcache.WriteReq.missRate::cpu.data     0.001697                       # miss rate for WriteReq accesses (Ratio)
system.cpu.dcache.WriteReq.missRate::total     0.001697                       # miss rate for WriteReq accesses (Ratio)
system.cpu.dcache.WriteReq.avgMissLatency::cpu.data 36946.852406                       # average WriteReq miss latency ((Tick/Count))
system.cpu.dcache.WriteReq.avgMissLatency::total 36946.852406                       # average WriteReq miss latency ((Tick/Count))
system.cpu.dcache.WriteReq.mshrHits::cpu.data         2604                       # number of WriteReq MSHR hits (Count)
system.cpu.dcache.WriteReq.mshrHits::total         2604                       # number of WriteReq MSHR hits (Count)
system.cpu.dcache.WriteReq.mshrMisses::cpu.data        21252                       # number of WriteReq MSHR misses (Count)
system.cpu.dcache.WriteReq.mshrMisses::total        21252                       # number of WriteReq MSHR misses (Count)
system.cpu.dcache.WriteReq.mshrMissLatency::cpu.data    750822157                       # number of WriteReq MSHR miss ticks (Tick)
system.cpu.dcache.WriteReq.mshrMissLatency::total    750822157                       # number of WriteReq MSHR miss ticks (Tick)
system.cpu.dcache.WriteReq.mshrMissRate::cpu.data     0.001512                       # mshr miss rate for WriteReq accesses (Ratio)
system.cpu.dcache.WriteReq.mshrMissRate::total     0.001512                       # mshr miss rate for WriteReq accesses (Ratio)
system.cpu.dcache.WriteReq.avgMshrMissLatency::cpu.data 35329.482260                       # average WriteReq mshr miss latency ((Tick/Count))
system.cpu.dcache.WriteReq.avgMshrMissLatency::total 35329.482260                       # average WriteReq mshr miss latency ((Tick/Count))
system.cpu.dcache.power_state.pwrStateResidencyTicks::UNDEFINED  50872519500                       # Cumulative time (in ticks) in various power states (Tick)
system.cpu.dcache.tags.tagsInUse          1017.504747                       # Average ticks per tags in use ((Tick/Count))
system.cpu.dcache.tags.totalRefs             34071261                       # Total number of references to valid blocks. (Count)
system.cpu.dcache.tags.sampledRefs            2141334                       # Sample count of references to valid blocks. (Count)
system.cpu.dcache.tags.avgRefs              15.911232                       # Average number of references to valid blocks. ((Count/Count))
system.cpu.dcache.tags.warmupTick              145000                       # The tick when the warmup percentage was hit. (Tick)
system.cpu.dcache.tags.occupancies::cpu.data  1017.504747                       # Average occupied blocks per tick, per requestor ((Count/Tick))
system.cpu.dcache.tags.avgOccs::cpu.data     0.993657                       # Average percentage of cache occupancy ((Ratio/Tick))
system.cpu.dcache.tags.avgOccs::total        0.993657                       # Average percentage of cache occupancy ((Ratio/Tick))
system.cpu.dcache.tags.occupanciesTaskId::1024         1024                       # Occupied blocks per task id (Count)
system.cpu.dcache.tags.ageTaskId_1024::0           64                       # Occupied blocks per task id, per block age (Count)
system.cpu.dcache.tags.ageTaskId_1024::1           27                       # Occupied blocks per task id, per block age (Count)
system.cpu.dcache.tags.ageTaskId_1024::2          261                       # Occupied blocks per task id, per block age (Count)
system.cpu.dcache.tags.ageTaskId_1024::3          671                       # Occupied blocks per task id, per block age (Count)
system.cpu.dcache.tags.ageTaskId_1024::4            1                       # Occupied blocks per task id, per block age (Count)
system.cpu.dcache.tags.ratioOccsTaskId::1024            1                       # Ratio of occupied blocks and all blocks, per task id (Ratio)
system.cpu.dcache.tags.tagAccesses           70373358                       # Number of tag accesses (Count)
system.cpu.dcache.tags.dataAccesses          70373358                       # Number of data accesses (Count)
system.cpu.dcache.tags.power_state.pwrStateResidencyTicks::UNDEFINED  50872519500                       # Cumulative time (in ticks) in various power states (Tick)
system.cpu.decode.idleCycles                 11164188                       # Number of cycles decode is idle (Cycle)
system.cpu.decode.blockedCycles              68510349                       # Number of cycles decode is blocked (Cycle)
system.cpu.decode.runCycles                  16534185                       # Number of cycles decode is running (Cycle)
system.cpu.decode.unblockCycles               5076746                       # Number of cycles decode is unblocking (Cycle)
system.cpu.decode.squashCycles                 150612                       # Number of cycles decode is squashing (Cycle)
system.cpu.decode.branchResolved              8291381                       # Number of times decode resolved a branch (Count)
system.cpu.decode.branchMispred                  1945                       # Number of times decode detected a branch misprediction (Count)
system.cpu.decode.decodedInsts              131756660                       # Number of instructions handled by decode (Count)
system.cpu.decode.squashedInsts                 12046                       # Number of squashed instructions handled by decode (Count)
system.cpu.fetch.icacheStallCycles           17062376                       # Number of cycles fetch is stalled on an Icache miss (Cycle)
system.cpu.fetch.insts                      124595953                       # Number of instructions fetch has processed (Count)
system.cpu.fetch.branches                    17358374                       # Number of branches that fetch encountered (Count)
system.cpu.fetch.predictedBranches            9417329                       # Number of branches that fetch has predicted taken (Count)
system.cpu.fetch.cycles                      84221035                       # Number of cycles fetch has run and was not squashing or blocked (Cycle)
system.cpu.fetch.squashCycles                  305096                       # Number of cycles fetch has spent squashing (Cycle)
system.cpu.fetch.miscStallCycles                    8                       # Number of cycles fetch has spent waiting on interrupts, or bad addresses, or out of MSHRs (Cycle)
system.cpu.fetch.icacheWaitRetryStallCycles          113                       # Number of stall cycles due to full MSHR (Cycle)
system.cpu.fetch.cacheLines                  16631782                       # Number of cache lines fetched (Count)
system.cpu.fetch.icacheSquashes                 49246                       # Number of outstanding Icache misses that were squashed (Count)
system.cpu.fetch.nisnDist::samples          101436080                       # Number of instructions fetched each cycle (Total) (Count)
system.cpu.fetch.nisnDist::mean              1.319642                       # Number of instructions fetched each cycle (Total) (Count)
system.cpu.fetch.nisnDist::stdev             2.644701                       # Number of instructions fetched each cycle (Total) (Count)
system.cpu.fetch.nisnDist::underflows               0      0.00%      0.00% # Number of instructions fetched each cycle (Total) (Count)
system.cpu.fetch.nisnDist::0                 73919827     72.87%     72.87% # Number of instructions fetched each cycle (Total) (Count)
system.cpu.fetch.nisnDist::1                  6242123      6.15%     79.03% # Number of instructions fetched each cycle (Total) (Count)
system.cpu.fetch.nisnDist::2                  2898197      2.86%     81.88% # Number of instructions fetched each cycle (Total) (Count)
system.cpu.fetch.nisnDist::3                  1747446      1.72%     83.61% # Number of instructions fetched each cycle (Total) (Count)
system.cpu.fetch.nisnDist::4                  2021147      1.99%     85.60% # Number of instructions fetched each cycle (Total) (Count)
system.cpu.fetch.nisnDist::5                  1222086      1.20%     86.80% # Number of instructions fetched each cycle (Total) (Count)
system.cpu.fetch.nisnDist::6                  1752981      1.73%     88.53% # Number of instructions fetched each cycle (Total) (Count)
system.cpu.fetch.nisnDist::7                  1192666      1.18%     89.71% # Number of instructions fetched each cycle (Total) (Count)
system.cpu.fetch.nisnDist::8                 10439607     10.29%    100.00% # Number of instructions fetched each cycle (Total) (Count)
system.cpu.fetch.nisnDist::overflows                0      0.00%    100.00% # Number of instructions fetched each cycle (Total) (Count)
system.cpu.fetch.nisnDist::min_value                0                       # Number of instructions fetched each cycle (Total) (Count)
system.cpu.fetch.nisnDist::max_value                8                       # Number of instructions fetched each cycle (Total) (Count)
system.cpu.fetch.nisnDist::total            101436080                       # Number of instructions fetched each cycle (Total) (Count)
system.cpu.fetch.branchRate                  0.170607                       # Number of branch fetches per cycle (Ratio)
system.cpu.fetch.rate                        1.224590                       # Number of inst fetches per cycle ((Count/Cycle))
system.cpu.icache.demandHits::cpu.inst       16617489                       # number of demand (read+write) hits (Count)
system.cpu.icache.demandHits::total          16617489                       # number of demand (read+write) hits (Count)
system.cpu.icache.overallHits::cpu.inst      16617489                       # number of overall hits (Count)
system.cpu.icache.overallHits::total         16617489                       # number of overall hits (Count)
system.cpu.icache.demandMisses::cpu.inst        14293                       # number of demand (read+write) misses (Count)
system.cpu.icache.demandMisses::total           14293                       # number of demand (read+write) misses (Count)
system.cpu.icache.overallMisses::cpu.inst        14293                       # number of overall misses (Count)
system.cpu.icache.overallMisses::total          14293                       # number of overall misses (Count)
system.cpu.icache.demandMissLatency::cpu.inst    402803997                       # number of demand (read+write) miss ticks (Tick)
system.cpu.icache.demandMissLatency::total    402803997                       # number of demand (read+write) miss ticks (Tick)
system.cpu.icache.overallMissLatency::cpu.inst    402803997                       # number of overall miss ticks (Tick)
system.cpu.icache.overallMissLatency::total    402803997                       # number of overall miss ticks (Tick)
system.cpu.icache.demandAccesses::cpu.inst     16631782                       # number of demand (read+write) accesses (Count)
system.cpu.icache.demandAccesses::total      16631782                       # number of demand (read+write) accesses (Count)
system.cpu.icache.overallAccesses::cpu.inst     16631782                       # number of overall (read+write) accesses (Count)
system.cpu.icache.overallAccesses::total     16631782                       # number of overall (read+write) accesses (Count)
system.cpu.icache.demandMissRate::cpu.inst     0.000859                       # miss rate for demand accesses (Ratio)
system.cpu.icache.demandMissRate::total      0.000859                       # miss rate for demand accesses (Ratio)
system.cpu.icache.overallMissRate::cpu.inst     0.000859                       # miss rate for overall accesses (Ratio)
system.cpu.icache.overallMissRate::total     0.000859                       # miss rate for overall accesses (Ratio)
system.cpu.icache.demandAvgMissLatency::cpu.inst 28181.907017                       # average overall miss latency ((Cycle/Count))
system.cpu.icache.demandAvgMissLatency::total 28181.907017                       # average overall miss latency ((Cycle/Count))
system.cpu.icache.overallAvgMissLatency::cpu.inst 28181.907017                       # average overall miss latency ((Cycle/Count))
system.cpu.icache.overallAvgMissLatency::total 28181.907017                       # average overall miss latency ((Cycle/Count))
system.cpu.icache.blockedCycles::no_mshrs         1011                       # number of cycles access was blocked (Cycle)
system.cpu.icache.blockedCycles::no_targets            0                       # number of cycles access was blocked (Cycle)
system.cpu.icache.blockedCauses::no_mshrs           23                       # number of times access was blocked (Count)
system.cpu.icache.blockedCauses::no_targets            0                       # number of times access was blocked (Count)
system.cpu.icache.avgBlocked::no_mshrs      43.956522                       # average number of cycles each access was blocked ((Cycle/Count))
system.cpu.icache.avgBlocked::no_targets          nan                       # average number of cycles each access was blocked ((Cycle/Count))
system.cpu.icache.writebacks::writebacks        12970                       # number of writebacks (Count)
system.cpu.icache.writebacks::total             12970                       # number of writebacks (Count)
system.cpu.icache.demandMshrHits::cpu.inst          823                       # number of demand (read+write) MSHR hits (Count)
system.cpu.icache.demandMshrHits::total           823                       # number of demand (read+write) MSHR hits (Count)
system.cpu.icache.overallMshrHits::cpu.inst          823                       # number of overall MSHR hits (Count)
system.cpu.icache.overallMshrHits::total          823                       # number of overall MSHR hits (Count)
system.cpu.icache.demandMshrMisses::cpu.inst        13470                       # number of demand (read+write) MSHR misses (Count)
system.cpu.icache.demandMshrMisses::total        13470                       # number of demand (read+write) MSHR misses (Count)
system.cpu.icache.overallMshrMisses::cpu.inst        13470                       # number of overall MSHR misses (Count)
system.cpu.icache.overallMshrMisses::total        13470                       # number of overall MSHR misses (Count)
system.cpu.icache.demandMshrMissLatency::cpu.inst    363772498                       # number of demand (read+write) MSHR miss ticks (Tick)
system.cpu.icache.demandMshrMissLatency::total    363772498                       # number of demand (read+write) MSHR miss ticks (Tick)
system.cpu.icache.overallMshrMissLatency::cpu.inst    363772498                       # number of overall MSHR miss ticks (Tick)
system.cpu.icache.overallMshrMissLatency::total    363772498                       # number of overall MSHR miss ticks (Tick)
system.cpu.icache.demandMshrMissRate::cpu.inst     0.000810                       # mshr miss ratio for demand accesses (Ratio)
system.cpu.icache.demandMshrMissRate::total     0.000810                       # mshr miss ratio for demand accesses (Ratio)
system.cpu.icache.overallMshrMissRate::cpu.inst     0.000810                       # mshr miss ratio for overall accesses (Ratio)
system.cpu.icache.overallMshrMissRate::total     0.000810                       # mshr miss ratio for overall accesses (Ratio)
system.cpu.icache.demandAvgMshrMissLatency::cpu.inst 27006.124573                       # average overall mshr miss latency ((Cycle/Count))
system.cpu.icache.demandAvgMshrMissLatency::total 27006.124573                       # average overall mshr miss latency ((Cycle/Count))
system.cpu.icache.overallAvgMshrMissLatency::cpu.inst 27006.124573                       # average overall mshr miss latency ((Cycle/Count))
system.cpu.icache.overallAvgMshrMissLatency::total 27006.124573                       # average overall mshr miss latency ((Cycle/Count))
system.cpu.icache.replacements                  12970                       # number of replacements (Count)
system.cpu.icache.ReadReq.hits::cpu.inst     16617489                       # number of ReadReq hits (Count)
system.cpu.icache.ReadReq.hits::total        16617489                       # number of ReadReq hits (Count)
system.cpu.icache.ReadReq.misses::cpu.inst        14293                       # number of ReadReq misses (Count)
system.cpu.icache.ReadReq.misses::total         14293                       # number of ReadReq misses (Count)
system.cpu.icache.ReadReq.missLatency::cpu.inst    402803997                       # number of ReadReq miss ticks (Tick)
system.cpu.icache.ReadReq.missLatency::total    402803997                       # number of ReadReq miss ticks (Tick)
system.cpu.icache.ReadReq.accesses::cpu.inst     16631782                       # number of ReadReq accesses(hits+misses) (Count)
system.cpu.icache.ReadReq.accesses::total     16631782                       # number of ReadReq accesses(hits+misses) (Count)
system.cpu.icache.ReadReq.missRate::cpu.inst     0.000859                       # miss rate for ReadReq accesses (Ratio)
system.cpu.icache.ReadReq.missRate::total     0.000859                       # miss rate for ReadReq accesses (Ratio)
system.cpu.icache.ReadReq.avgMissLatency::cpu.inst 28181.907017                       # average ReadReq miss latency ((Tick/Count))
system.cpu.icache.ReadReq.avgMissLatency::total 28181.907017                       # average ReadReq miss latency ((Tick/Count))
system.cpu.icache.ReadReq.mshrHits::cpu.inst          823                       # number of ReadReq MSHR hits (Count)
system.cpu.icache.ReadReq.mshrHits::total          823                       # number of ReadReq MSHR hits (Count)
system.cpu.icache.ReadReq.mshrMisses::cpu.inst        13470                       # number of ReadReq MSHR misses (Count)
system.cpu.icache.ReadReq.mshrMisses::total        13470                       # number of ReadReq MSHR misses (Count)
system.cpu.icache.ReadReq.mshrMissLatency::cpu.inst    363772498                       # number of ReadReq MSHR miss ticks (Tick)
system.cpu.icache.ReadReq.mshrMissLatency::total    363772498                       # number of ReadReq MSHR miss ticks (Tick)
system.cpu.icache.ReadReq.mshrMissRate::cpu.inst     0.000810                       # mshr miss rate for ReadReq accesses (Ratio)
system.cpu.icache.ReadReq.mshrMissRate::total     0.000810                       # mshr miss rate for ReadReq accesses (Ratio)
system.cpu.icache.ReadReq.avgMshrMissLatency::cpu.inst 27006.124573                       # average ReadReq mshr miss latency ((Tick/Count))
system.cpu.icache.ReadReq.avgMshrMissLatency::total 27006.124573                       # average ReadReq mshr miss latency ((Tick/Count))
system.cpu.icache.power_state.pwrStateResidencyTicks::UNDEFINED  50872519500                       # Cumulative time (in ticks) in various power states (Tick)
system.cpu.icache.tags.tagsInUse           492.214967                       # Average ticks per tags in use ((Tick/Count))
system.cpu.icache.tags.totalRefs             16630958                       # Total number of references to valid blocks. (Count)
system.cpu.icache.tags.sampledRefs              13469                       # Sample count of references to valid blocks. (Count)
system.cpu.icache.tags.avgRefs            1234.758185                       # Average number of references to valid blocks. ((Count/Count))
system.cpu.icache.tags.warmupTick               77000                       # The tick when the warmup percentage was hit. (Tick)
system.cpu.icache.tags.occupancies::cpu.inst   492.214967                       # Average occupied blocks per tick, per requestor ((Count/Tick))
system.cpu.icache.tags.avgOccs::cpu.inst     0.961357                       # Average percentage of cache occupancy ((Ratio/Tick))
system.cpu.icache.tags.avgOccs::total        0.961357                       # Average percentage of cache occupancy ((Ratio/Tick))
system.cpu.icache.tags.occupanciesTaskId::1024          499                       # Occupied blocks per task id (Count)
system.cpu.icache.tags.ageTaskId_1024::0           94                       # Occupied blocks per task id, per block age (Count)
system.cpu.icache.tags.ageTaskId_1024::3          186                       # Occupied blocks per task id, per block age (Count)
system.cpu.icache.tags.ageTaskId_1024::4          219                       # Occupied blocks per task id, per block age (Count)
system.cpu.icache.tags.ratioOccsTaskId::1024     0.974609                       # Ratio of occupied blocks and all blocks, per task id (Ratio)
system.cpu.icache.tags.tagAccesses           33277033                       # Number of tag accesses (Count)
system.cpu.icache.tags.dataAccesses          33277033                       # Number of data accesses (Count)
system.cpu.icache.tags.power_state.pwrStateResidencyTicks::UNDEFINED  50872519500                       # Cumulative time (in ticks) in various power states (Tick)
system.cpu.iew.idleCycles                           0                       # Number of cycles IEW is idle (Cycle)
system.cpu.iew.squashCycles                    150612                       # Number of cycles IEW is squashing (Cycle)
system.cpu.iew.blockCycles                    1030768                       # Number of cycles IEW is blocking (Cycle)
system.cpu.iew.unblockCycles                  4584869                       # Number of cycles IEW is unblocking (Cycle)
[...]
system.mem_ctrls.dram.bwRead::cpu.inst       16944630                       # Total read bandwidth from this memory ((Byte/Second))
system.mem_ctrls.dram.bwRead::cpu.data     2693866499                       # Total read bandwidth from this memory ((Byte/Second))
system.mem_ctrls.dram.bwRead::total        2710811129                       # Total read bandwidth from this memory ((Byte/Second))
system.mem_ctrls.dram.bwInstRead::cpu.inst     16944630                       # Instruction read bandwidth from this memory ((Byte/Second))
system.mem_ctrls.dram.bwInstRead::total      16944630                       # Instruction read bandwidth from this memory ((Byte/Second))
system.mem_ctrls.dram.bwWrite::writebacks     26629072                       # Write bandwidth from this memory ((Byte/Second))
system.mem_ctrls.dram.bwWrite::total         26629072                       # Write bandwidth from this memory ((Byte/Second))
system.mem_ctrls.dram.bwTotal::writebacks     26629072                       # Total bandwidth to/from this memory ((Byte/Second))
system.mem_ctrls.dram.bwTotal::cpu.inst      16944630                       # Total bandwidth to/from this memory ((Byte/Second))
system.mem_ctrls.dram.bwTotal::cpu.data    2693866499                       # Total bandwidth to/from this memory ((Byte/Second))
system.mem_ctrls.dram.bwTotal::total       2737440201                       # Total bandwidth to/from this memory ((Byte/Second))
system.mem_ctrls.dram.readBursts              2126258                       # Number of DRAM read bursts (Count)
system.mem_ctrls.dram.writeBursts                8193                       # Number of DRAM write bursts (Count)
system.mem_ctrls.dram.perBankRdBursts::0       132978                       # Per bank write bursts (Count)
system.mem_ctrls.dram.perBankRdBursts::1       133036                       # Per bank write bursts (Count)
system.mem_ctrls.dram.perBankRdBursts::2       133081                       # Per bank write bursts (Count)
system.mem_ctrls.dram.perBankRdBursts::3       133045                       # Per bank write bursts (Count)
system.mem_ctrls.dram.perBankRdBursts::4       133017                       # Per bank write bursts (Count)
system.mem_ctrls.dram.perBankRdBursts::5       133194                       # Per bank write bursts (Count)
system.mem_ctrls.dram.perBankRdBursts::6       132746                       # Per bank write bursts (Count)
system.mem_ctrls.dram.perBankRdBursts::7       132571                       # Per bank write bursts (Count)
system.mem_ctrls.dram.perBankRdBursts::8       132335                       # Per bank write bursts (Count)
system.mem_ctrls.dram.perBankRdBursts::9       132612                       # Per bank write bursts (Count)
system.mem_ctrls.dram.perBankRdBursts::10       132892                       # Per bank write bursts (Count)
system.mem_ctrls.dram.perBankRdBursts::11       133008                       # Per bank write bursts (Count)
system.mem_ctrls.dram.perBankRdBursts::12       133055                       # Per bank write bursts (Count)
system.mem_ctrls.dram.perBankRdBursts::13       132891                       # Per bank write bursts (Count)
system.mem_ctrls.dram.perBankRdBursts::14       132910                       # Per bank write bursts (Count)
system.mem_ctrls.dram.perBankRdBursts::15       132887                       # Per bank write bursts (Count)
system.mem_ctrls.dram.perBankWrBursts::0          452                       # Per bank write bursts (Count)
system.mem_ctrls.dram.perBankWrBursts::1          466                       # Per bank write bursts (Count)
system.mem_ctrls.dram.perBankWrBursts::2          541                       # Per bank write bursts (Count)
system.mem_ctrls.dram.perBankWrBursts::3          572                       # Per bank write bursts (Count)
system.mem_ctrls.dram.perBankWrBursts::4          513                       # Per bank write bursts (Count)
system.mem_ctrls.dram.perBankWrBursts::5          576                       # Per bank write bursts (Count)
system.mem_ctrls.dram.perBankWrBursts::6          589                       # Per bank write bursts (Count)
system.mem_ctrls.dram.perBankWrBursts::7          428                       # Per bank write bursts (Count)
system.mem_ctrls.dram.perBankWrBursts::8          505                       # Per bank write bursts (Count)
system.mem_ctrls.dram.perBankWrBursts::9          578                       # Per bank write bursts (Count)
system.mem_ctrls.dram.perBankWrBursts::10          450                       # Per bank write bursts (Count)
system.mem_ctrls.dram.perBankWrBursts::11          544                       # Per bank write bursts (Count)
system.mem_ctrls.dram.perBankWrBursts::12          475                       # Per bank write bursts (Count)
system.mem_ctrls.dram.perBankWrBursts::13          657                       # Per bank write bursts (Count)
system.mem_ctrls.dram.perBankWrBursts::14          427                       # Per bank write bursts (Count)
system.mem_ctrls.dram.perBankWrBursts::15          420                       # Per bank write bursts (Count)
system.mem_ctrls.dram.totQLat             15424542250                       # Total ticks spent queuing (Tick)
system.mem_ctrls.dram.totBusLat           10631290000                       # Total ticks spent in databus transfers (Tick)
system.mem_ctrls.dram.totMemAccLat        55291879750                       # Total ticks spent from burst creation until serviced by the DRAM (Tick)
system.mem_ctrls.dram.avgQLat                 7254.31                       # Average queueing delay per DRAM burst ((Tick/Count))
system.mem_ctrls.dram.avgBusLat               5000.00                       # Average bus latency per DRAM burst ((Tick/Count))
system.mem_ctrls.dram.avgMemAccLat           26004.31                       # Average memory access latency per DRAM burst ((Tick/Count))
system.mem_ctrls.dram.readRowHits             1923616                       # Number of row buffer hits during reads (Count)
system.mem_ctrls.dram.writeRowHits               6839                       # Number of row buffer hits during writes (Count)
system.mem_ctrls.dram.readRowHitRate            90.47                       # Row buffer hit rate for reads (Ratio)
system.mem_ctrls.dram.writeRowHitRate           83.47                       # Row buffer hit rate for writes (Ratio)
system.mem_ctrls.dram.bytesPerActivate::samples       203984                       # Bytes accessed per row activation (Byte)
system.mem_ctrls.dram.bytesPerActivate::mean   669.675426                       # Bytes accessed per row activation (Byte)
system.mem_ctrls.dram.bytesPerActivate::gmean   515.510110                       # Bytes accessed per row activation (Byte)
system.mem_ctrls.dram.bytesPerActivate::stdev   363.130136                       # Bytes accessed per row activation (Byte)
system.mem_ctrls.dram.bytesPerActivate::0-127        18069      8.86%      8.86% # Bytes accessed per row activation (Byte)
system.mem_ctrls.dram.bytesPerActivate::128-255        19470      9.54%     18.40% # Bytes accessed per row activation (Byte)
system.mem_ctrls.dram.bytesPerActivate::256-383        17943      8.80%     27.20% # Bytes accessed per row activation (Byte)
system.mem_ctrls.dram.bytesPerActivate::384-511         1136      0.56%     27.76% # Bytes accessed per row activation (Byte)
system.mem_ctrls.dram.bytesPerActivate::512-639        46415     22.75%     50.51% # Bytes accessed per row activation (Byte)
system.mem_ctrls.dram.bytesPerActivate::640-767         1931      0.95%     51.46% # Bytes accessed per row activation (Byte)
system.mem_ctrls.dram.bytesPerActivate::768-895         2087      1.02%     52.48% # Bytes accessed per row activation (Byte)
system.mem_ctrls.dram.bytesPerActivate::896-1023         2030      1.00%     53.48% # Bytes accessed per row activation (Byte)
system.mem_ctrls.dram.bytesPerActivate::1024-1151        94903     46.52%    100.00% # Bytes accessed per row activation (Byte)
system.mem_ctrls.dram.bytesPerActivate::total       203984                       # Bytes accessed per row activation (Byte)
system.mem_ctrls.dram.bytesRead             136080512                       # Total bytes read (Byte)
system.mem_ctrls.dram.bytesWritten             524352                       # Total bytes written (Byte)
system.mem_ctrls.dram.avgRdBW             2674.931640                       # Average DRAM read bandwidth in MiBytes/s ((Byte/Second))
system.mem_ctrls.dram.avgWrBW               10.307176                       # Average DRAM write bandwidth in MiBytes/s ((Byte/Second))
system.mem_ctrls.dram.peakBW                 12800.00                       # Theoretical peak bandwidth in MiByte/s ((Byte/Second))
system.mem_ctrls.dram.busUtil                   20.98                       # Data bus utilization in percentage (Ratio)
system.mem_ctrls.dram.busUtilRead               20.90                       # Data bus utilization in percentage for reads (Ratio)
system.mem_ctrls.dram.busUtilWrite               0.08                       # Data bus utilization in percentage for writes (Ratio)
system.mem_ctrls.dram.pageHitRate               90.44                       # Row buffer hit rate, read and write combined (Ratio)
system.mem_ctrls.dram.power_state.pwrStateResidencyTicks::UNDEFINED  50872519500                       # Cumulative time (in ticks) in various power states (Tick)
system.mem_ctrls.dram.rank0.actEnergy       810332880                       # Energy for activate commands per rank (pJ) (Joule)
system.mem_ctrls.dram.rank0.preEnergy       430683165                       # Energy for precharge commands per rank (pJ) (Joule)
system.mem_ctrls.dram.rank0.readEnergy     7594582380                       # Energy for read commands per rank (pJ) (Joule)
system.mem_ctrls.dram.rank0.writeEnergy      21595140                       # Energy for write commands per rank (pJ) (Joule)
system.mem_ctrls.dram.rank0.refreshEnergy 4015443120.000000                       # Energy for refresh commands per rank (pJ) (Joule)
system.mem_ctrls.dram.rank0.actBackEnergy  19252882020                       # Energy for active background per rank (pJ) (Joule)
system.mem_ctrls.dram.rank0.preBackEnergy   3322094400                       # Energy for precharge background per rank (pJ) (Joule)
system.mem_ctrls.dram.rank0.actPowerDownEnergy            0                       # Energy for active power-down per rank (pJ) (Joule)
system.mem_ctrls.dram.rank0.prePowerDownEnergy            0                       # Energy for precharge power-down per rank (pJ) (Joule)
system.mem_ctrls.dram.rank0.selfRefreshEnergy            0                       # Energy for self refresh per rank (pJ) (Joule)
system.mem_ctrls.dram.rank0.totalEnergy   35447613105                       # Total energy per rank (pJ) (Joule)
system.mem_ctrls.dram.rank0.averagePower   696.792953                       # Core power per rank (mW) (Watt)
system.mem_ctrls.dram.rank0.totalIdleTime            0                       # Total Idle time Per DRAM Rank (Tick)
system.mem_ctrls.dram.rank0.pwrStateTime::IDLE   8469661250                       # Time in different power states (Tick)
system.mem_ctrls.dram.rank0.pwrStateTime::REF   1698580000                       # Time in different power states (Tick)
system.mem_ctrls.dram.rank0.pwrStateTime::SREF            0                       # Time in different power states (Tick)
system.mem_ctrls.dram.rank0.pwrStateTime::PRE_PDN            0                       # Time in different power states (Tick)
system.mem_ctrls.dram.rank0.pwrStateTime::ACT  40704278250                       # Time in different power states (Tick)
system.mem_ctrls.dram.rank0.pwrStateTime::ACT_PDN            0                       # Time in different power states (Tick)
system.mem_ctrls.dram.rank1.actEnergy       646191420                       # Energy for activate commands per rank (pJ) (Joule)
system.mem_ctrls.dram.rank1.preEnergy       343436115                       # Energy for precharge commands per rank (pJ) (Joule)
system.mem_ctrls.dram.rank1.readEnergy     7586892600                       # Energy for read commands per rank (pJ) (Joule)
system.mem_ctrls.dram.rank1.writeEnergy      21172320                       # Energy for write commands per rank (pJ) (Joule)
system.mem_ctrls.dram.rank1.refreshEnergy 4015443120.000000                       # Energy for refresh commands per rank (pJ) (Joule)
system.mem_ctrls.dram.rank1.actBackEnergy  18615693270                       # Energy for active background per rank (pJ) (Joule)
system.mem_ctrls.dram.rank1.preBackEnergy   3858674400                       # Energy for precharge background per rank (pJ) (Joule)
system.mem_ctrls.dram.rank1.actPowerDownEnergy            0                       # Energy for active power-down per rank (pJ) (Joule)
system.mem_ctrls.dram.rank1.prePowerDownEnergy            0                       # Energy for precharge power-down per rank (pJ) (Joule)
system.mem_ctrls.dram.rank1.selfRefreshEnergy            0                       # Energy for self refresh per rank (pJ) (Joule)
system.mem_ctrls.dram.rank1.totalEnergy   35087503245                       # Total energy per rank (pJ) (Joule)
system.mem_ctrls.dram.rank1.averagePower   689.714282                       # Core power per rank (mW) (Watt)
system.mem_ctrls.dram.rank1.totalIdleTime            0                       # Total Idle time Per DRAM Rank (Tick)
system.mem_ctrls.dram.rank1.pwrStateTime::IDLE   9825939000                       # Time in different power states (Tick)
system.mem_ctrls.dram.rank1.pwrStateTime::REF   1698580000                       # Time in different power states (Tick)
system.mem_ctrls.dram.rank1.pwrStateTime::SREF            0                       # Time in different power states (Tick)
system.mem_ctrls.dram.rank1.pwrStateTime::PRE_PDN            0                       # Time in different power states (Tick)
system.mem_ctrls.dram.rank1.pwrStateTime::ACT  39348000500                       # Time in different power states (Tick)
system.mem_ctrls.dram.rank1.pwrStateTime::ACT_PDN            0                       # Time in different power states (Tick)
system.mem_ctrls.power_state.pwrStateResidencyTicks::UNDEFINED  50872519500                       # Cumulative time (in ticks) in various power states (Tick)
system.membus.transDist::ReadResp             2133542                       # Transaction distribution (Count)
system.membus.transDist::WritebackDirty         21167                       # Transaction distribution (Count)
system.membus.transDist::WritebackClean         12970                       # Transaction distribution (Count)
system.membus.transDist::CleanEvict           2119143                       # Transaction distribution (Count)
system.membus.transDist::ReadExReq              21236                       # Transaction distribution (Count)
system.membus.transDist::ReadExResp             21236                       # Transaction distribution (Count)
system.membus.transDist::ReadCleanReq           13470                       # Transaction distribution (Count)
system.membus.transDist::ReadSharedReq        2120073                       # Transaction distribution (Count)
system.membus.transDist::InvalidateReq             25                       # Transaction distribution (Count)
system.membus.pktCount_system.cpu.icache.mem_side_port::system.mem_ctrls.port        39909                       # Packet count per connected requestor and responder (Count)
system.membus.pktCount_system.cpu.dcache.mem_side_port::system.mem_ctrls.port      6422953                       # Packet count per connected requestor and responder (Count)
system.membus.pktCount::total                 6462862                       # Packet count per connected requestor and responder (Count)
system.membus.pktSize_system.cpu.icache.mem_side_port::system.mem_ctrls.port      1692096                       # Cumulative packet size per connected requestor and responder (Byte)
system.membus.pktSize_system.cpu.dcache.mem_side_port::system.mem_ctrls.port    138398464                       # Cumulative packet size per connected requestor and responder (Byte)
system.membus.pktSize::total                140090560                       # Cumulative packet size per connected requestor and responder (Byte)
system.membus.snoops                                0                       # Total snoops (Count)
system.membus.snoopTraffic                          0                       # Total snoop traffic (Byte)
system.membus.snoopFanout::samples            2154804                       # Request fanout histogram (Count)
system.membus.snoopFanout::mean              0.000001                       # Request fanout histogram (Count)
system.membus.snoopFanout::stdev             0.000963                       # Request fanout histogram (Count)
system.membus.snoopFanout::underflows               0      0.00%      0.00% # Request fanout histogram (Count)
system.membus.snoopFanout::0                  2154802    100.00%    100.00% # Request fanout histogram (Count)
system.membus.snoopFanout::1                        2      0.00%    100.00% # Request fanout histogram (Count)
system.membus.snoopFanout::2                        0      0.00%    100.00% # Request fanout histogram (Count)
system.membus.snoopFanout::overflows                0      0.00%    100.00% # Request fanout histogram (Count)
system.membus.snoopFanout::min_value                0                       # Request fanout histogram (Count)
system.membus.snoopFanout::max_value                1                       # Request fanout histogram (Count)
system.membus.snoopFanout::total              2154804                       # Request fanout histogram (Count)
system.membus.power_state.pwrStateResidencyTicks::UNDEFINED  50872519500                       # Cumulative time (in ticks) in various power states (Tick)
system.membus.reqLayer0.occupancy          5168411000                       # Layer occupancy (ticks) (Tick)
system.membus.reqLayer0.utilization               0.1                       # Layer utilization (Ratio)
system.membus.respLayer1.occupancy           67871500                       # Layer occupancy (ticks) (Tick)
system.membus.respLayer1.utilization              0.0                       # Layer utilization (Ratio)
system.membus.respLayer2.occupancy        11117304750                       # Layer occupancy (ticks) (Tick)
system.membus.respLayer2.utilization              0.2                       # Layer utilization (Ratio)
system.membus.snoop_filter.totRequests        4308084                       # Total number of requests made to the snoop filter. (Count)
system.membus.snoop_filter.hitSingleRequests      2153281                       # Number of requests hitting in the snoop filter with a single holder of the requested data. (Count)
system.membus.snoop_filter.hitMultiRequests            1                       # Number of requests hitting in the snoop filter with multiple (>1) holders of the requested data. (Count)
system.membus.snoop_filter.totSnoops                0                       # Total number of snoops made to the snoop filter. (Count)
system.membus.snoop_filter.hitSingleSnoops            0                       # Number of snoops hitting in the snoop filter with a single holder of the requested data. (Count)
system.membus.snoop_filter.hitMultiSnoops            0                       # Number of snoops hitting in the snoop filter with multiple (>1) holders of the requested data. (Count)
system.voltage_domain.voltage                       1                       # Voltage in Volts (Volt)
system.workload.inst.arm                            0                       # number of arm instructions executed (Count)
system.workload.inst.quiesce                        0                       # number of quiesce instructions executed (Count)

---------- End Simulation Statistics   ----------
