
---------- Begin Simulation Statistics ----------
simSeconds                                   0.051199                       # Number of seconds simulated (Second)
simTicks                                  51198708500                       # Number of ticks simulated (Tick)
finalTick                                 51198708500                       # Number of ticks from beginning of simulation (restored from checkpoints and never reset) (Tick)
simFreq                                  1000000000000                       # The number of ticks per simulated second ((Tick/Second))
hostSeconds                                    190.25                       # Real time elapsed on the host (Second)
hostTickRate                                269107267                       # The number of ticks simulated per host second (ticks/s) ((Tick/Second))
hostMemory                                     680480                       # Number of bytes of host memory used (Byte)
simInsts                                    117386585                       # Number of instructions simulated (Count)
simOps                                      124728401                       # Number of ops (including micro ops) simulated (Count)
hostInstRate                                   616999                       # Simulator instruction rate (inst/s) ((Count/Second))
hostOpRate                                     655589                       # Simulator op (including micro ops) rate (op/s) ((Count/Second))
system.clk_domain.clock                          1000                       # Clock period in ticks (Tick)
system.cpu.numCycles                        102397418                       # Number of cpu cycles simulated (Cycle)
system.cpu.numWorkItemsStarted                      0                       # Number of work items this cpu started (Count)
system.cpu.numWorkItemsCompleted                    0                       # Number of work items this cpu completed (Count)
system.cpu.instsAdded                       129930583                       # Number of instructions added to the IQ (excludes non-spec) (Count)
system.cpu.nonSpecInstsAdded                   196975                       # Number of non-speculative instructions added to the IQ (Count)
system.cpu.instsIssued                      129897175                       # Number of instructions issued (Count)
system.cpu.squashedInstsIssued                 231254                       # Number of squashed instructions issued (Count)
system.cpu.squashedInstsExamined              5399156                       # Number of squashed instructions iterated over during squash; mainly for profiling (Count)
system.cpu.squashedOperandsExamined           4274750                       # Number of squashed operands that are examined and possibly removed from graph (Count)
system.cpu.squashedNonSpecRemoved                 165                       # Number of squashed non-spec instructions that were removed (Count)
system.cpu.numIssuedDist::samples           102099464                       # Number of insts issued each cycle (Count)
system.cpu.numIssuedDist::mean               1.272261                       # Number of insts issued each cycle (Count)
system.cpu.numIssuedDist::stdev              1.804198                       # Number of insts issued each cycle (Count)
system.cpu.numIssuedDist::underflows                0      0.00%      0.00% # Number of insts issued each cycle (Count)
system.cpu.numIssuedDist::0                  53686811     52.58%     52.58% # Number of insts issued each cycle (Count)
system.cpu.numIssuedDist::1                  16106612     15.78%     68.36% # Number of insts issued each cycle (Count)
system.cpu.numIssuedDist::2                  10595404     10.38%     78.74% # Number of insts issued each cycle (Count)
system.cpu.numIssuedDist::3                   8624469      8.45%     87.18% # Number of insts issued each cycle (Count)
system.cpu.numIssuedDist::4                   6038076      5.91%     93.10% # Number of insts issued each cycle (Count)
system.cpu.numIssuedDist::5                   2841262      2.78%     95.88% # Number of insts issued each cycle (Count)
system.cpu.numIssuedDist::6                   1963748      1.92%     97.80% # Number of insts issued each cycle (Count)
system.cpu.numIssuedDist::7                   1359410      1.33%     99.13% # Number of insts issued each cycle (Count)
system.cpu.numIssuedDist::8                    883672      0.87%    100.00% # Number of insts issued each cycle (Count)
system.cpu.numIssuedDist::overflows                 0      0.00%    100.00% # Number of insts issued each cycle (Count)
system.cpu.numIssuedDist::min_value                 0                       # Number of insts issued each cycle (Count)
system.cpu.numIssuedDist::max_value                 8                       # Number of insts issued each cycle (Count)
system.cpu.numIssuedDist::total             102099464                       # Number of insts issued each cycle (Count)
system.cpu.statFuBusy::No_OpClass                   0      0.00%      0.00% # attempts to use FU when none available (Count)
system.cpu.statFuBusy::IntAlu                  299782     11.01%     11.01% # attempts to use FU when none available (Count)
system.cpu.statFuBusy::IntMult                 137875      5.06%     16.08% # attempts to use FU when none available (Count)
system.cpu.statFuBusy::IntDiv                       0      0.00%     16.08% # attempts to use FU when none available (Count)
system.cpu.statFuBusy::FloatAdd                     0      0.00%     16.08% # attempts to use FU when none available (Count)
system.cpu.statFuBusy::FloatCmp                     0      0.00%     16.08% # attempts to use FU when none available (Count)
system.cpu.statFuBusy::FloatCvt                     0      0.00%     16.08% # attempts to use FU when none available (Count)
system.cpu.statFuBusy::FloatMult                    0      0.00%     16.08% # attempts to use FU when none available (Count)
system.cpu.statFuBusy::FloatMultAcc                 0      0.00%     16.08% # attempts to use FU when none available (Count)
system.cpu.statFuBusy::FloatDiv                     0      0.00%     16.08% # attempts to use FU when none available (Count)
system.cpu.statFuBusy::FloatMisc                    0      0.00%     16.08% # attempts to use FU when none available (Count)
system.cpu.statFuBusy::FloatSqrt                    0      0.00%     16.08% # attempts to use FU when none available (Count)
system.cpu.statFuBusy::SimdAdd                      0      0.00%     16.08% # attempts to use FU when none available (Count)
system.cpu.statFuBusy::SimdAddAcc                   0      0.00%     16.08% # attempts to use FU when none available (Count)
system.cpu.statFuBusy::SimdAlu                      1      0.00%     16.08% # attempts to use FU when none available (Count)
system.cpu.statFuBusy::SimdCmp                      2      0.00%     16.08% # attempts to use FU when none available (Count)
system.cpu.statFuBusy::SimdCvt                      0      0.00%     16.08% # attempts to use FU when none available (Count)
system.cpu.statFuBusy::SimdMisc                     0      0.00%     16.08% # attempts to use FU when none available (Count)
system.cpu.statFuBusy::SimdMult                     0      0.00%     16.08% # attempts to use FU when none available (Count)
system.cpu.statFuBusy::SimdMultAcc                  0      0.00%     16.08% # attempts to use FU when none available (Count)
system.cpu.statFuBusy::SimdShift                    0      0.00%     16.08% # attempts to use FU when none available (Count)
system.cpu.statFuBusy::SimdShiftAcc                 0      0.00%     16.08% # attempts to use FU when none available (Count)
system.cpu.statFuBusy::SimdDiv                      0      0.00%     16.08% # attempts to use FU when none available (Count)
system.cpu.statFuBusy::SimdSqrt                     0      0.00%     16.08% # attempts to use FU when none available (Count)
system.cpu.statFuBusy::SimdFloatAdd                 0      0.00%     16.08% # attempts to use FU when none available (Count)
system.cpu.statFuBusy::SimdFloatAlu                 0      0.00%     16.08% # attempts to use FU when none available (Count)
system.cpu.statFuBusy::SimdFloatCmp                 0      0.00%     16.08% # attempts to use FU when none available (Count)
system.cpu.statFuBusy::SimdFloatCvt                 0      0.00%     16.08% # attempts to use FU when none available (Count)
system.cpu.statFuBusy::SimdFloatDiv                 0      0.00%     16.08% # attempts to use FU when none available (Count)
system.cpu.statFuBusy::SimdFloatMisc                0      0.00%     16.08% # attempts to use FU when none available (Count)
system.cpu.statFuBusy::SimdFloatMult                0      0.00%     16.08% # attempts to use FU when none available (Count)
system.cpu.statFuBusy::SimdFloatMultAcc             0      0.00%     16.08% # attempts to use FU when none available (Count)
system.cpu.statFuBusy::SimdFloatSqrt                0      0.00%     16.08% # attempts to use FU when none available (Count)
system.cpu.statFuBusy::SimdReduceAdd                0      0.00%     16.08% # attempts to use FU when none available (Count)
system.cpu.statFuBusy::SimdReduceAlu                0      0.00%     16.08% # attempts to use FU when none available (Count)
system.cpu.statFuBusy::SimdReduceCmp                0      0.00%     16.08% # attempts to use FU when none available (Count)
system.cpu.statFuBusy::SimdFloatReduceAdd            0      0.00%     16.08% # attempts to use FU when none available (Count)
system.cpu.statFuBusy::SimdFloatReduceCmp            0      0.00%     16.08% # attempts to use FU when none available (Count)
system.cpu.statFuBusy::SimdAes                      0      0.00%     16.08% # attempts to use FU when none available (Count)
system.cpu.statFuBusy::SimdAesMix                   0      0.00%     16.08% # attempts to use FU when none available (Count)
system.cpu.statFuBusy::SimdSha1Hash                 0      0.00%     16.08% # attempts to use FU when none available (Count)
system.cpu.statFuBusy::SimdSha1Hash2                0      0.00%     16.08% # attempts to use FU when none available (Count)
system.cpu.statFuBusy::SimdSha256Hash               0      0.00%     16.08% # attempts to use FU when none available (Count)
system.cpu.statFuBusy::SimdSha256Hash2              0      0.00%     16.08% # attempts to use FU when none available (Count)
system.cpu.statFuBusy::SimdShaSigma2                0      0.00%     16.08% # attempts to use FU when none available (Count)
system.cpu.statFuBusy::SimdShaSigma3                0      0.00%     16.08% # attempts to use FU when none available (Count)
system.cpu.statFuBusy::SimdPredAlu                  0      0.00%     16.08% # attempts to use FU when none available (Count)
system.cpu.statFuBusy::MemRead                1150942     42.28%     58.36% # attempts to use FU when none available (Count)
system.cpu.statFuBusy::MemWrite               1133663     41.64%    100.00% # attempts to use FU when none available (Count)
system.cpu.statFuBusy::FloatMemRead                 0      0.00%    100.00% # attempts to use FU when none available (Count)
system.cpu.statFuBusy::FloatMemWrite                0      0.00%    100.00% # attempts to use FU when none available (Count)
system.cpu.statFuBusy::IprAccess                    0      0.00%    100.00% # attempts to use FU when none available (Count)
system.cpu.statFuBusy::InstPrefetch                 0      0.00%    100.00% # attempts to use FU when none available (Count)
system.cpu.statIssuedInstType_0::No_OpClass       131152      0.10%      0.10% # Number of instructions issued per FU type, per thread (Count)
system.cpu.statIssuedInstType_0::IntAlu      76362952     58.79%     58.89% # Number of instructions issued per FU type, per thread (Count)
system.cpu.statIssuedInstType_0::IntMult       603103      0.46%     59.35% # Number of instructions issued per FU type, per thread (Count)
system.cpu.statIssuedInstType_0::IntDiv         25994      0.02%     59.37% # Number of instructions issued per FU type, per thread (Count)
system.cpu.statIssuedInstType_0::FloatAdd      2097972      1.62%     60.99% # Number of instructions issued per FU type, per thread (Count)
system.cpu.statIssuedInstType_0::FloatCmp        32768      0.03%     61.01% # Number of instructions issued per FU type, per thread (Count)
system.cpu.statIssuedInstType_0::FloatCvt            0      0.00%     61.01% # Number of instructions issued per FU type, per thread (Count)
system.cpu.statIssuedInstType_0::FloatMult      2097152      1.61%     62.63% # Number of instructions issued per FU type, per thread (Count)
system.cpu.statIssuedInstType_0::FloatMultAcc            0      0.00%     62.63% # Number of instructions issued per FU type, per thread (Count)
system.cpu.statIssuedInstType_0::FloatDiv            0      0.00%     62.63% # Number of instructions issued per FU type, per thread (Count)
system.cpu.statIssuedInstType_0::FloatMisc        52451      0.04%     62.67% # Number of instructions issued per FU type, per thread (Count)
system.cpu.statIssuedInstType_0::FloatSqrt            0      0.00%     62.67% # Number of instructions issued per FU type, per thread (Count)
system.cpu.statIssuedInstType_0::SimdAdd        65574      0.05%     62.72% # Number of instructions issued per FU type, per thread (Count)
system.cpu.statIssuedInstType_0::SimdAddAcc            0      0.00%     62.72% # Number of instructions issued per FU type, per thread (Count)
system.cpu.statIssuedInstType_0::SimdAlu       131138      0.10%     62.82% # Number of instructions issued per FU type, per thread (Count)
system.cpu.statIssuedInstType_0::SimdCmp       131136      0.10%     62.92% # Number of instructions issued per FU type, per thread (Count)
system.cpu.statIssuedInstType_0::SimdCvt            0      0.00%     62.92% # Number of instructions issued per FU type, per thread (Count)
system.cpu.statIssuedInstType_0::SimdMisc       130297      0.10%     63.02% # Number of instructions issued per FU type, per thread (Count)
system.cpu.statIssuedInstType_0::SimdMult            0      0.00%     63.02% # Number of instructions issued per FU type, per thread (Count)
system.cpu.statIssuedInstType_0::SimdMultAcc            0      0.00%     63.02% # Number of instructions issued per FU type, per thread (Count)
system.cpu.statIssuedInstType_0::SimdShift            0      0.00%     63.02% # Number of instructions issued per FU type, per thread (Count)
system.cpu.statIssuedInstType_0::SimdShiftAcc            0      0.00%     63.02% # Number of instructions issued per FU type, per thread (Count)
system.cpu.statIssuedInstType_0::SimdDiv            0      0.00%     63.02% # Number of instructions issued per FU type, per thread (Count)
system.cpu.statIssuedInstType_0::SimdSqrt            0      0.00%     63.02% # Number of instructions issued per FU type, per thread (Count)
system.cpu.statIssuedInstType_0::SimdFloatAdd            0      0.00%     63.02% # Number of instructions issued per FU type, per thread (Count)
system.cpu.statIssuedInstType_0::SimdFloatAlu            0      0.00%     63.02% # Number of instructions issued per FU type, per thread (Count)
system.cpu.statIssuedInstType_0::SimdFloatCmp            0      0.00%     63.02% # Number of instructions issued per FU type, per thread (Count)
system.cpu.statIssuedInstType_0::SimdFloatCvt            0      0.00%     63.02% # Number of instructions issued per FU type, per thread (Count)
system.cpu.statIssuedInstType_0::SimdFloatDiv            0      0.00%     63.02% # Number of instructions issued per FU type, per thread (Count)
system.cpu.statIssuedInstType_0::SimdFloatMisc            0      0.00%     63.02% # Number of instructions issued per FU type, per thread (Count)
system.cpu.statIssuedInstType_0::SimdFloatMult            0      0.00%     63.02% # Number of instructions issued per FU type, per thread (Count)
system.cpu.statIssuedInstType_0::SimdFloatMultAcc            0      0.00%     63.02% # Number of instructions issued per FU type, per thread (Count)
system.cpu.statIssuedInstType_0::SimdFloatSqrt            0      0.00%     63.02% # Number of instructions issued per FU type, per thread (Count)
system.cpu.statIssuedInstType_0::SimdReduceAdd            0      0.00%     63.02% # Number of instructions issued per FU type, per thread (Count)
system.cpu.statIssuedInstType_0::SimdReduceAlu            0      0.00%     63.02% # Number of instructions issued per FU type, per thread (Count)
system.cpu.statIssuedInstType_0::SimdReduceCmp            0      0.00%     63.02% # Number of instructions issued per FU type, per thread (Count)
system.cpu.statIssuedInstType_0::SimdFloatReduceAdd            0      0.00%     63.02% # Number of instructions issued per FU type, per thread (Count)
system.cpu.statIssuedInstType_0::SimdFloatReduceCmp            0      0.00%     63.02% # Number of instructions issued per FU type, per thread (Count)
system.cpu.statIssuedInstType_0::SimdAes            0      0.00%     63.02% # Number of instructions issued per FU type, per thread (Count)
system.cpu.statIssuedInstType_0::SimdAesMix            0      0.00%     63.02% # Number of instructions issued per FU type, per thread (Count)
system.cpu.statIssuedInstType_0::SimdSha1Hash            0      0.00%     63.02% # Number of instructions issued per FU type, per thread (Count)
system.cpu.statIssuedInstType_0::SimdSha1Hash2            0      0.00%     63.02% # Number of instructions issued per FU type, per thread (Count)
system.cpu.statIssuedInstType_0::SimdSha256Hash            0      0.00%     63.02% # Number of instructions issued per FU type, per thread (Count)
system.cpu.statIssuedInstType_0::SimdSha256Hash2            0      0.00%     63.02% # Number of instructions issued per FU type, per thread (Count)
system.cpu.statIssuedInstType_0::SimdShaSigma2            0      0.00%     63.02% # Number of instructions issued per FU type, per thread (Count)
system.cpu.statIssuedInstType_0::SimdShaSigma3            0      0.00%     63.02% # Number of instructions issued per FU type, per thread (Count)
system.cpu.statIssuedInstType_0::SimdPredAlu            0      0.00%     63.02% # Number of instructions issued per FU type, per thread (Count)
system.cpu.statIssuedInstType_0::MemRead     32764808     25.22%     88.24% # Number of instructions issued per FU type, per thread (Count)
system.cpu.statIssuedInstType_0::MemWrite     15270678     11.76%    100.00% # Number of instructions issued per FU type, per thread (Count)
system.cpu.statIssuedInstType_0::FloatMemRead            0      0.00%    100.00% # Number of instructions issued per FU type, per thread (Count)
system.cpu.statIssuedInstType_0::FloatMemWrite            0      0.00%    100.00% # Number of instructions issued per FU type, per thread (Count)
system.cpu.statIssuedInstType_0::IprAccess            0      0.00%    100.00% # Number of instructions issued per FU type, per thread (Count)
system.cpu.statIssuedInstType_0::InstPrefetch            0      0.00%    100.00% # Number of instructions issued per FU type, per thread (Count)
system.cpu.statIssuedInstType_0::total      129897175                       # Number of instructions issued per FU type, per thread (Count)
system.cpu.issueRate                         1.268559                       # Inst issue rate ((Count/Cycle))
system.cpu.fuBusy                             2722265                       # FU busy when requested (Count)
system.cpu.fuBusyRate                        0.020957                       # FU busy rate (busy events/executed inst) ((Count/Count))
system.cpu.intInstQueueReads                334698345                       # Number of integer instruction queue reads (Count)
system.cpu.intInstQueueWrites               119465769                       # Number of integer instruction queue writes (Count)
system.cpu.intInstQueueWakeupAccesses       113776396                       # Number of integer instruction queue wakeup accesses (Count)
system.cpu.fpInstQueueReads                         0                       # Number of floating instruction queue reads (Count)
system.cpu.fpInstQueueWrites                        0                       # Number of floating instruction queue writes (Count)
system.cpu.fpInstQueueWakeupAccesses                0                       # Number of floating instruction queue wakeup accesses (Count)
system.cpu.vecInstQueueReads                 30148988                       # Number of vector instruction queue reads (Count)
system.cpu.vecInstQueueWrites                16133828                       # Number of vector instruction queue writes (Count)
system.cpu.vecInstQueueWakeupAccesses        14529973                       # Number of vector instruction queue wakeup accesses (Count)
system.cpu.intAluAccesses                   117374958                       # Number of integer alu accesses (Count)
system.cpu.fpAluAccesses                            0                       # Number of floating point alu accesses (Count)
system.cpu.vecAluAccesses                    15113330                       # Number of vector alu accesses (Count)
system.cpu.numInsts                         129510807                       # Number of executed instructions (Count)
system.cpu.numLoadInsts                      32688996                       # Number of load instructions executed (Count)
system.cpu.numSquashedInsts                    386368                       # Number of squashed instructions skipped in execute (Count)
system.cpu.numSwp                                   0                       # Number of swp insts executed (Count)
system.cpu.numNop                              102226                       # Number of nop insts executed (Count)
system.cpu.numRefs                           47753699                       # Number of memory reference insts executed (Count)
system.cpu.numBranches                       16906278                       # Number of branches executed (Count)
system.cpu.numStoreInsts                     15064703                       # Number of stores executed (Count)
system.cpu.numRate                           1.264786                       # Inst execution rate ((Count/Cycle))
system.cpu.timesIdled                           12438                       # Number of times that the entire CPU went into an idle state and unscheduled itself (Count)
system.cpu.idleCycles                          297954                       # Total number of cycles that the CPU has spent unscheduled due to idling (Cycle)
system.cpu.committedInsts                   117386585                       # Number of Instructions Simulated (Count)
system.cpu.committedOps                     124728401                       # Number of Ops (including micro ops) Simulated (Count)
system.cpu.cpi                               0.872309                       # CPI: Cycles Per Instruction ((Cycle/Count))
system.cpu.totalCpi                          0.872309                       # CPI: Total CPI of All Threads ((Cycle/Count))
system.cpu.ipc                               1.146382                       # IPC: Instructions Per Cycle ((Count/Cycle))
system.cpu.totalIpc                          1.146382                       # IPC: Total IPC of All Threads ((Count/Cycle))
system.cpu.intRegfileReads                  144106488                       # Number of integer regfile reads (Count)
system.cpu.intRegfileWrites                  87723100                       # Number of integer regfile writes (Count)
system.cpu.vecRegfileReads                   12545872                       # number of vector regfile reads (Count)
system.cpu.vecRegfileWrites                  11188640                       # number of vector regfile writes (Count)
system.cpu.ccRegfileReads                    29482593                       # number of cc regfile reads (Count)
system.cpu.ccRegfileWrites                   29315639                       # number of cc regfile writes (Count)
system.cpu.miscRegfileReads                 279346443                       # number of misc regfile reads (Count)
system.cpu.miscRegfileWrites                  4441033                       # number of misc regfile writes (Count)
system.cpu.MemDepUnit__0.insertedLoads       31917723                       # Number of loads inserted to the mem dependence unit. (Count)
system.cpu.MemDepUnit__0.insertedStores      15849611                       # Number of stores inserted to the mem dependence unit. (Count)
system.cpu.MemDepUnit__0.conflictingLoads      9987060                       # Number of conflicting loads. (Count)
system.cpu.MemDepUnit__0.conflictingStores      3568692                       # Number of conflicting stores. (Count)
system.cpu.MemDepUnit__1.insertedLoads              0                       # Number of loads inserted to the mem dependence unit. (Count)
system.cpu.MemDepUnit__1.insertedStores             0                       # Number of stores inserted to the mem dependence unit. (Count)
system.cpu.MemDepUnit__1.conflictingLoads            0                       # Number of conflicting loads. (Count)
system.cpu.MemDepUnit__1.conflictingStores            0                       # Number of conflicting stores. (Count)
system.cpu.MemDepUnit__2.insertedLoads              0                       # Number of loads inserted to the mem dependence unit. (Count)
system.cpu.MemDepUnit__2.insertedStores             0                       # Number of stores inserted to the mem dependence unit. (Count)
system.cpu.MemDepUnit__2.conflictingLoads            0                       # Number of conflicting loads. (Count)
system.cpu.MemDepUnit__2.conflictingStores            0                       # Number of conflicting stores. (Count)
system.cpu.MemDepUnit__3.insertedLoads              0                       # Number of loads inserted to the mem dependence unit. (Count)
system.cpu.MemDepUnit__3.insertedStores             0                       # Number of stores inserted to the mem dependence unit. (Count)
system.cpu.MemDepUnit__3.conflictingLoads            0                       # Number of conflicting loads. (Count)
system.cpu.MemDepUnit__3.conflictingStores            0                       # Number of conflicting stores. (Count)
system.cpu.branchPred.lookups                17385677                       # Number of BP lookups (Count)
system.cpu.branchPred.condPredicted          12031371                       # Number of conditional branches predicted (Count)
system.cpu.branchPred.condIncorrect             80346                       # Number of conditional branches incorrect (Count)
system.cpu.branchPred.BTBLookups              8383174                       # Number of BTB lookups (Count)
system.cpu.branchPred.BTBHits                 8375050                       # Number of BTB hits (Count)
system.cpu.branchPred.BTBHitRatio            0.999031                       # BTB Hit Ratio (Ratio)
system.cpu.branchPred.RASUsed                  859222                       # Number of times the RAS was used to get a target. (Count)
system.cpu.branchPred.RASIncorrect                 30                       # Number of incorrect RAS predictions. (Count)
system.cpu.branchPred.indirectLookups          206135                       # Number of indirect predictor lookups. (Count)
system.cpu.branchPred.indirectHits             188135                       # Number of indirect target hits. (Count)
system.cpu.branchPred.indirectMisses            18000                       # Number of indirect misses. (Count)
system.cpu.branchPred.indirectMispredicted          204                       # Number of mispredicted indirect branches. (Count)
system.cpu.commit.commitSquashedInsts         5408429                       # The number of squashed insts skipped by commit (Count)
system.cpu.commit.commitNonSpecStalls          196810                       # The number of times commit has been forced to stall to communicate backwards (Count)
system.cpu.commit.branchMispredicts             78372                       # The number of times a branch was mispredicted (Count)
system.cpu.commit.numCommittedDist::samples    101356821                       # Number of insts commited each cycle (Count)
system.cpu.commit.numCommittedDist::mean     1.231577                       # Number of insts commited each cycle (Count)
system.cpu.commit.numCommittedDist::stdev     2.493083                       # Number of insts commited each cycle (Count)
system.cpu.commit.numCommittedDist::underflows            0      0.00%      0.00% # Number of insts commited each cycle (Count)
system.cpu.commit.numCommittedDist::0        70701205     69.75%     69.75% # Number of insts commited each cycle (Count)
system.cpu.commit.numCommittedDist::1        10040618      9.91%     79.66% # Number of insts commited each cycle (Count)
system.cpu.commit.numCommittedDist::2         5002196      4.94%     84.60% # Number of insts commited each cycle (Count)
system.cpu.commit.numCommittedDist::3         1903284      1.88%     86.47% # Number of insts commited each cycle (Count)
system.cpu.commit.numCommittedDist::4          826898      0.82%     87.29% # Number of insts commited each cycle (Count)
system.cpu.commit.numCommittedDist::5          546750      0.54%     87.83% # Number of insts commited each cycle (Count)
system.cpu.commit.numCommittedDist::6         2479628      2.45%     90.28% # Number of insts commited each cycle (Count)
system.cpu.commit.numCommittedDist::7          695222      0.69%     90.96% # Number of insts commited each cycle (Count)
system.cpu.commit.numCommittedDist::8         9161020      9.04%    100.00% # Number of insts commited each cycle (Count)
system.cpu.commit.numCommittedDist::overflows            0      0.00%    100.00% # Number of insts commited each cycle (Count)
system.cpu.commit.numCommittedDist::min_value            0                       # Number of insts commited each cycle (Count)
system.cpu.commit.numCommittedDist::max_value            8                       # Number of insts commited each cycle (Count)
system.cpu.commit.numCommittedDist::total    101356821                       # Number of insts commited each cycle (Count)
system.cpu.commit.instsCommitted            117486870                       # Number of instructions committed (Count)
system.cpu.commit.opsCommitted              124828686                       # Number of ops (including micro ops) committed (Count)
system.cpu.commit.memRefs                    45178889                       # Number of memory references committed (Count)
system.cpu.commit.loads                      31020339                       # Number of loads committed (Count)
system.cpu.commit.amos                          98358                       # Number of atomic instructions committed (Count)
system.cpu.commit.membars                       98368                       # Number of memory barriers committed (Count)
system.cpu.commit.branches                   16643203                       # Number of branches committed (Count)
system.cpu.commit.vectorInstructions         14142056                       # Number of committed Vector instructions. (Count)
system.cpu.commit.floating                          0                       # Number of committed floating point instructions. (Count)
system.cpu.commit.integer                   108962176                       # Number of committed integer instructions. (Count)
system.cpu.commit.functionCalls                845015                       # Number of function calls committed. (Count)
system.cpu.commit.committedInstType_0::No_OpClass       131141      0.11%      0.11% # Class of committed instruction (Count)
system.cpu.commit.committedInstType_0::IntAlu     74152404     59.40%     59.51% # Class of committed instruction (Count)
system.cpu.commit.committedInstType_0::IntMult       602806      0.48%     59.99% # Class of committed instruction (Count)
system.cpu.commit.committedInstType_0::IntDiv        25925      0.02%     60.01% # Class of committed instruction (Count)
system.cpu.commit.committedInstType_0::FloatAdd      2097972      1.68%     61.69% # Class of committed instruction (Count)
system.cpu.commit.committedInstType_0::FloatCmp        32768      0.03%     61.72% # Class of committed instruction (Count)
system.cpu.commit.committedInstType_0::FloatCvt            0      0.00%     61.72% # Class of committed instruction (Count)
system.cpu.commit.committedInstType_0::FloatMult      2097152      1.68%     63.40% # Class of committed instruction (Count)
system.cpu.commit.committedInstType_0::FloatMultAcc            0      0.00%     63.40% # Class of committed instruction (Count)
system.cpu.commit.committedInstType_0::FloatDiv            0      0.00%     63.40% # Class of committed instruction (Count)
system.cpu.commit.committedInstType_0::FloatMisc        51612      0.04%     63.44% # Class of committed instruction (Count)
system.cpu.commit.committedInstType_0::FloatSqrt            0      0.00%     63.44% # Class of committed instruction (Count)
system.cpu.commit.committedInstType_0::SimdAdd        65556      0.05%     63.49% # Class of committed instruction (Count)
system.cpu.commit.committedInstType_0::SimdAddAcc            0      0.00%     63.49% # Class of committed instruction (Count)
system.cpu.commit.committedInstType_0::SimdAlu       131098      0.11%     63.60% # Class of committed instruction (Count)
system.cpu.commit.committedInstType_0::SimdCmp       131092      0.11%     63.70% # Class of committed instruction (Count)
system.cpu.commit.committedInstType_0::SimdCvt            0      0.00%     63.70% # Class of committed instruction (Count)
system.cpu.commit.committedInstType_0::SimdMisc       130271      0.10%     63.81% # Class of committed instruction (Count)
system.cpu.commit.committedInstType_0::SimdMult            0      0.00%     63.81% # Class of committed instruction (Count)
system.cpu.commit.committedInstType_0::SimdMultAcc            0      0.00%     63.81% # Class of committed instruction (Count)
system.cpu.commit.committedInstType_0::SimdShift            0      0.00%     63.81% # Class of committed instruction (Count)
system.cpu.commit.committedInstType_0::SimdShiftAcc            0      0.00%     63.81% # Class of committed instruction (Count)
system.cpu.commit.committedInstType_0::SimdDiv            0      0.00%     63.81% # Class of committed instruction (Count)
system.cpu.commit.committedInstType_0::SimdSqrt            0      0.00%     63.81% # Class of committed instruction (Count)
system.cpu.commit.committedInstType_0::SimdFloatAdd            0      0.00%     63.81% # Class of committed instruction (Count)
system.cpu.commit.committedInstType_0::SimdFloatAlu            0      0.00%     63.81% # Class of committed instruction (Count)
system.cpu.commit.committedInstType_0::SimdFloatCmp            0      0.00%     63.81% # Class of committed instruction (Count)
system.cpu.commit.committedInstType_0::SimdFloatCvt            0      0.00%     63.81% # Class of committed instruction (Count)
system.cpu.commit.committedInstType_0::SimdFloatDiv            0      0.00%     63.81% # Class of committed instruction (Count)
system.cpu.commit.committedInstType_0::SimdFloatMisc            0      0.00%     63.81% # Class of committed instruction (Count)
system.cpu.commit.committedInstType_0::SimdFloatMult            0      0.00%     63.81% # Class of committed instruction (Count)
system.cpu.commit.committedInstType_0::SimdFloatMultAcc            0      0.00%     63.81% # Class of committed instruction (Count)
system.cpu.commit.committedInstType_0::SimdFloatSqrt            0      0.00%     63.81% # Class of committed instruction (Count)
system.cpu.commit.committedInstType_0::SimdReduceAdd            0      0.00%     63.81% # Class of committed instruction (Count)
system.cpu.commit.committedInstType_0::SimdReduceAlu            0      0.00%     63.81% # Class of committed instruction (Count)
system.cpu.commit.committedInstType_0::SimdReduceCmp            0      0.00%     63.81% # Class of committed instruction (Count)
system.cpu.commit.committedInstType_0::SimdFloatReduceAdd            0      0.00%     63.81% # Class of committed instruction (Count)
system.cpu.commit.committedInstType_0::SimdFloatReduceCmp            0      0.00%     63.81% # Class of committed instruction (Count)
system.cpu.commit.committedInstType_0::SimdAes            0      0.00%     63.81% # Class of committed instruction (Count)
system.cpu.commit.committedInstType_0::SimdAesMix            0      0.00%     63.81% # Class of committed instruction (Count)
system.cpu.commit.committedInstType_0::SimdSha1Hash            0      0.00%     63.81% # Class of committed instruction (Count)
system.cpu.commit.committedInstType_0::SimdSha1Hash2            0      0.00%     63.81% # Class of committed instruction (Count)
system.cpu.commit.committedInstType_0::SimdSha256Hash            0      0.00%     63.81% # Class of committed instruction (Count)
system.cpu.commit.committedInstType_0::SimdSha256Hash2            0      0.00%     63.81% # Class of committed instruction (Count)
system.cpu.commit.committedInstType_0::SimdShaSigma2            0      0.00%     63.81% # Class of committed instruction (Count)
system.cpu.commit.committedInstType_0::SimdShaSigma3            0      0.00%     63.81% # Class of committed instruction (Count)
system.cpu.commit.committedInstType_0::SimdPredAlu            0      0.00%     63.81% # Class of committed instruction (Count)
system.cpu.commit.committedInstType_0::MemRead     31020339     24.85%     88.66% # Class of committed instruction (Count)
system.cpu.commit.committedInstType_0::MemWrite     14158550     11.34%    100.00% # Class of committed instruction (Count)
system.cpu.commit.committedInstType_0::FloatMemRead            0      0.00%    100.00% # Class of committed instruction (Count)
system.cpu.commit.committedInstType_0::FloatMemWrite            0      0.00%    100.00% # Class of committed instruction (Count)
system.cpu.commit.committedInstType_0::IprAccess            0      0.00%    100.00% # Class of committed instruction (Count)
system.cpu.commit.committedInstType_0::InstPrefetch            0      0.00%    100.00% # Class of committed instruction (Count)
system.cpu.commit.committedInstType_0::total    124828686                       # Class of committed instruction (Count)
system.cpu.commit.commitEligibleSamples       9161020                       # number cycles where commit BW limit reached (Cycle)
system.cpu.dcache.demandHits::cpu.data       31773613                       # number of demand (read+write) hits (Count)
system.cpu.dcache.demandHits::total          31773613                       # number of demand (read+write) hits (Count)
system.cpu.dcache.overallHits::cpu.data      31812373                       # number of overall hits (Count)
system.cpu.dcache.overallHits::total         31812373                       # number of overall hits (Count)
system.cpu.dcache.demandMisses::cpu.data      2210653                       # number of demand (read+write) misses (Count)
system.cpu.dcache.demandMisses::total         2210653                       # number of demand (read+write) misses (Count)
system.cpu.dcache.overallMisses::cpu.data      2210667                       # number of overall misses (Count)
system.cpu.dcache.overallMisses::total        2210667                       # number of overall misses (Count)
system.cpu.dcache.demandMissLatency::cpu.data 127882977592                       # number of demand (read+write) miss ticks (Tick)
system.cpu.dcache.demandMissLatency::total 127882977592                       # number of demand (read+write) miss ticks (Tick)
system.cpu.dcache.overallMissLatency::cpu.data 127882977592                       # number of overall miss ticks (Tick)
system.cpu.dcache.overallMissLatency::total 127882977592                       # number of overall miss ticks (Tick)
system.cpu.dcache.demandAccesses::cpu.data     33984266                       # number of demand (read+write) accesses (Count)
system.cpu.dcache.demandAccesses::total      33984266                       # number of demand (read+write) accesses (Count)
system.cpu.dcache.overallAccesses::cpu.data     34023040                       # number of overall (read+write) accesses (Count)
system.cpu.dcache.overallAccesses::total     34023040                       # number of overall (read+write) accesses (Count)
system.cpu.dcache.demandMissRate::cpu.data     0.065049                       # miss rate for demand accesses (Ratio)
system.cpu.dcache.demandMissRate::total      0.065049                       # miss rate for demand accesses (Ratio)
system.cpu.dcache.overallMissRate::cpu.data     0.064976                       # miss rate for overall accesses (Ratio)
system.cpu.dcache.overallMissRate::total     0.064976                       # miss rate for overall accesses (Ratio)
system.cpu.dcache.demandAvgMissLatency::cpu.data 57848.507926                       # average overall miss latency ((Cycle/Count))
system.cpu.dcache.demandAvgMissLatency::total 57848.507926                       # average overall miss latency ((Cycle/Count))
system.cpu.dcache.overallAvgMissLatency::cpu.data 57848.141575                       # average overall miss latency ((Cycle/Count))
system.cpu.dcache.overallAvgMissLatency::total 57848.141575                       # average overall miss latency ((Cycle/Count))
system.cpu.dcache.blockedCycles::no_mshrs     40185247                       # number of cycles access was blocked (Cycle)
system.cpu.dcache.blockedCycles::no_targets            0                       # number of cycles access was blocked (Cycle)
system.cpu.dcache.blockedCauses::no_mshrs       819234                       # number of times access was blocked (Count)
system.cpu.dcache.blockedCauses::no_targets            0                       # number of times access was blocked (Count)
system.cpu.dcache.avgBlocked::no_mshrs      49.052221                       # average number of cycles each access was blocked ((Cycle/Count))
system.cpu.dcache.avgBlocked::no_targets          nan                       # average number of cycles each access was blocked ((Cycle/Count))
system.cpu.dcache.writebacks::writebacks        24662                       # number of writebacks (Count)
system.cpu.dcache.writebacks::total             24662                       # number of writebacks (Count)
system.cpu.dcache.demandMshrHits::cpu.data        59545                       # number of demand (read+write) MSHR hits (Count)
system.cpu.dcache.demandMshrHits::total         59545                       # number of demand (read+write) MSHR hits (Count)
system.cpu.dcache.overallMshrHits::cpu.data        59545                       # number of overall MSHR hits (Count)
system.cpu.dcache.overallMshrHits::total        59545                       # number of overall MSHR hits (Count)
system.cpu.dcache.demandMshrMisses::cpu.data      2151108                       # number of demand (read+write) MSHR misses (Count)
system.cpu.dcache.demandMshrMisses::total      2151108                       # number of demand (read+write) MSHR misses (Count)
system.cpu.dcache.overallMshrMisses::cpu.data      2151122                       # number of overall MSHR misses (Count)
system.cpu.dcache.overallMshrMisses::total      2151122                       # number of overall MSHR misses (Count)
system.cpu.dcache.demandMshrMissLatency::cpu.data 123686886643                       # number of demand (read+write) MSHR miss ticks (Tick)
system.cpu.dcache.demandMshrMissLatency::total 123686886643                       # number of demand (read+write) MSHR miss ticks (Tick)
system.cpu.dcache.overallMshrMissLatency::cpu.data 123687676143                       # number of overall MSHR miss ticks (Tick)
system.cpu.dcache.overallMshrMissLatency::total 123687676143                       # number of overall MSHR miss ticks (Tick)
system.cpu.dcache.demandMshrMissRate::cpu.data     0.063297                       # mshr miss ratio for demand accesses (Ratio)
system.cpu.dcache.demandMshrMissRate::total     0.063297                       # mshr miss ratio for demand accesses (Ratio)
system.cpu.dcache.overallMshrMissRate::cpu.data     0.063225                       # mshr miss ratio for overall accesses (Ratio)
system.cpu.dcache.overallMshrMissRate::total     0.063225                       # mshr miss ratio for overall accesses (Ratio)
system.cpu.dcache.demandAvgMshrMissLatency::cpu.data 57499.152364                       # average overall mshr miss latency ((Cycle/Count))
system.cpu.dcache.demandAvgMshrMissLatency::total 57499.152364                       # average overall mshr miss latency ((Cycle/Count))
system.cpu.dcache.overallAvgMshrMissLatency::cpu.data 57499.145164                       # average overall mshr miss latency ((Cycle/Count))
system.cpu.dcache.overallAvgMshrMissLatency::total 57499.145164                       # average overall mshr miss latency ((Cycle/Count))
system.cpu.dcache.replacements                2150614                       # number of replacements (Count)
system.cpu.dcache.LoadLockedReq.hits::cpu.data           33                       # number of LoadLockedReq hits (Count)
system.cpu.dcache.LoadLockedReq.hits::total           33                       # number of LoadLockedReq hits (Count)
system.cpu.dcache.LoadLockedReq.misses::cpu.data            6                       # number of LoadLockedReq misses (Count)
system.cpu.dcache.LoadLockedReq.misses::total            6                       # number of LoadLockedReq misses (Count)
system.cpu.dcache.LoadLockedReq.missLatency::cpu.data       427500                       # number of LoadLockedReq miss ticks (Tick)
system.cpu.dcache.LoadLockedReq.missLatency::total       427500                       # number of LoadLockedReq miss ticks (Tick)
system.cpu.dcache.LoadLockedReq.accesses::cpu.data           39                       # number of LoadLockedReq accesses(hits+misses) (Count)
system.cpu.dcache.LoadLockedReq.accesses::total           39                       # number of LoadLockedReq accesses(hits+misses) (Count)
system.cpu.dcache.LoadLockedReq.missRate::cpu.data     0.153846                       # miss rate for LoadLockedReq accesses (Ratio)
system.cpu.dcache.LoadLockedReq.missRate::total     0.153846                       # miss rate for LoadLockedReq accesses (Ratio)
system.cpu.dcache.LoadLockedReq.avgMissLatency::cpu.data        71250                       # average LoadLockedReq miss latency ((Tick/Count))
system.cpu.dcache.LoadLockedReq.avgMissLatency::total        71250                       # average LoadLockedReq miss latency ((Tick/Count))
system.cpu.dcache.LoadLockedReq.mshrHits::cpu.data            2                       # number of LoadLockedReq MSHR hits (Count)
system.cpu.dcache.LoadLockedReq.mshrHits::total            2                       # number of LoadLockedReq MSHR hits (Count)
system.cpu.dcache.LoadLockedReq.mshrMisses::cpu.data            4                       # number of LoadLockedReq MSHR misses (Count)
system.cpu.dcache.LoadLockedReq.mshrMisses::total            4                       # number of LoadLockedReq MSHR misses (Count)
system.cpu.dcache.LoadLockedReq.mshrMissLatency::cpu.data       339500                       # number of LoadLockedReq MSHR miss ticks (Tick)
system.cpu.dcache.LoadLockedReq.mshrMissLatency::total       339500                       # number of LoadLockedReq MSHR miss ticks (Tick)
system.cpu.dcache.LoadLockedReq.mshrMissRate::cpu.data     0.102564                       # mshr miss rate for LoadLockedReq accesses (Ratio)
system.cpu.dcache.LoadLockedReq.mshrMissRate::total     0.102564                       # mshr miss rate for LoadLockedReq accesses (Ratio)
system.cpu.dcache.LoadLockedReq.avgMshrMissLatency::cpu.data        84875                       # average LoadLockedReq mshr miss latency ((Tick/Count))
system.cpu.dcache.LoadLockedReq.avgMshrMissLatency::total        84875                       # average LoadLockedReq mshr miss latency ((Tick/Count))
system.cpu.dcache.ReadReq.hits::cpu.data     17749548                       # number of ReadReq hits (Count)
system.cpu.dcache.ReadReq.hits::total        17749548                       # number of ReadReq hits (Count)
system.cpu.dcache.ReadReq.misses::cpu.data      2174528                       # number of ReadReq misses (Count)
system.cpu.dcache.ReadReq.misses::total       2174528                       # number of ReadReq misses (Count)
system.cpu.dcache.ReadReq.missLatency::cpu.data 126668124500                       # number of ReadReq miss ticks (Tick)
system.cpu.dcache.ReadReq.missLatency::total 126668124500                       # number of ReadReq miss ticks (Tick)
system.cpu.dcache.ReadReq.accesses::cpu.data     19924076                       # number of ReadReq accesses(hits+misses) (Count)
system.cpu.dcache.ReadReq.accesses::total     19924076                       # number of ReadReq accesses(hits+misses) (Count)
system.cpu.dcache.ReadReq.missRate::cpu.data     0.109141                       # miss rate for ReadReq accesses (Ratio)
system.cpu.dcache.ReadReq.missRate::total     0.109141                       # miss rate for ReadReq accesses (Ratio)
system.cpu.dcache.ReadReq.avgMissLatency::cpu.data 58250.859267                       # average ReadReq miss latency ((Tick/Count))
system.cpu.dcache.ReadReq.avgMissLatency::total 58250.859267                       # average ReadReq miss latency ((Tick/Count))
system.cpu.dcache.ReadReq.mshrHits::cpu.data        48161                       # number of ReadReq MSHR hits (Count)
system.cpu.dcache.ReadReq.mshrHits::total        48161                       # number of ReadReq MSHR hits (Count)
system.cpu.dcache.ReadReq.mshrMisses::cpu.data      2126367                       # number of ReadReq MSHR misses (Count)
system.cpu.dcache.ReadReq.mshrMisses::total      2126367                       # number of ReadReq MSHR misses (Count)
system.cpu.dcache.ReadReq.mshrMissLatency::cpu.data 122855908000                       # number of ReadReq MSHR miss ticks (Tick)
system.cpu.dcache.ReadReq.mshrMissLatency::total 122855908000                       # number of ReadReq MSHR miss ticks (Tick)
system.cpu.dcache.ReadReq.mshrMissRate::cpu.data     0.106723                       # mshr miss rate for ReadReq accesses (Ratio)
system.cpu.dcache.ReadReq.mshrMissRate::total     0.106723                       # mshr miss rate for ReadReq accesses (Ratio)
system.cpu.dcache.ReadReq.avgMshrMissLatency::cpu.data 57777.377094                       # average ReadReq mshr miss latency ((Tick/Count))
system.cpu.dcache.ReadReq.avgMshrMissLatency::total 57777.377094                       # average ReadReq mshr miss latency ((Tick/Count))
system.cpu.dcache.SoftPFReq.hits::cpu.data        38760                       # number of SoftPFReq hits (Count)
system.cpu.dcache.SoftPFReq.hits::total         38760                       # number of SoftPFReq hits (Count)
system.cpu.dcache.SoftPFReq.misses::cpu.data           14                       # number of SoftPFReq misses (Count)
system.cpu.dcache.SoftPFReq.misses::total           14                       # number of SoftPFReq misses (Count)
system.cpu.dcache.SoftPFReq.accesses::cpu.data        38774                       # number of SoftPFReq accesses(hits+misses) (Count)
system.cpu.dcache.SoftPFReq.accesses::total        38774                       # number of SoftPFReq accesses(hits+misses) (Count)
system.cpu.dcache.SoftPFReq.missRate::cpu.data     0.000361                       # miss rate for SoftPFReq accesses (Ratio)
system.cpu.dcache.SoftPFReq.missRate::total     0.000361                       # miss rate for SoftPFReq accesses (Ratio)
system.cpu.dcache.SoftPFReq.mshrMisses::cpu.data           14                       # number of SoftPFReq MSHR misses (Count)
system.cpu.dcache.SoftPFReq.mshrMisses::total           14                       # number of SoftPFReq MSHR misses (Count)
system.cpu.dcache.SoftPFReq.mshrMissLatency::cpu.data       789500                       # number of SoftPFReq MSHR miss ticks (Tick)
system.cpu.dcache.SoftPFReq.mshrMissLatency::total       789500                       # number of SoftPFReq MSHR miss ticks (Tick)
system.cpu.dcache.SoftPFReq.mshrMissRate::cpu.data     0.000361                       # mshr miss rate for SoftPFReq accesses (Ratio)
system.cpu.dcache.SoftPFReq.mshrMissRate::total     0.000361                       # mshr miss rate for SoftPFReq accesses (Ratio)
system.cpu.dcache.SoftPFReq.avgMshrMissLatency::cpu.data 56392.857143                       # average SoftPFReq mshr miss latency ((Tick/Count))
system.cpu.dcache.SoftPFReq.avgMshrMissLatency::total 56392.857143                       # average SoftPFReq mshr miss latency ((Tick/Count))
system.cpu.dcache.StoreCondReq.hits::cpu.data           10                       # number of StoreCondReq hits (Count)
system.cpu.dcache.StoreCondReq.hits::total           10                       # number of StoreCondReq hits (Count)
system.cpu.dcache.StoreCondReq.accesses::cpu.data           10                       # number of StoreCondReq accesses(hits+misses) (Count)
system.cpu.dcache.StoreCondReq.accesses::total           10                       # number of StoreCondReq accesses(hits+misses) (Count)
system.cpu.dcache.SwapReq.hits::cpu.data        98357                       # number of SwapReq hits (Count)
system.cpu.dcache.SwapReq.hits::total           98357                       # number of SwapReq hits (Count)
system.cpu.dcache.SwapReq.misses::cpu.data            1                       # number of SwapReq misses (Count)
system.cpu.dcache.SwapReq.misses::total             1                       # number of SwapReq misses (Count)
system.cpu.dcache.SwapReq.missLatency::cpu.data        76000                       # number of SwapReq miss ticks (Tick)
system.cpu.dcache.SwapReq.missLatency::total        76000                       # number of SwapReq miss ticks (Tick)
system.cpu.dcache.SwapReq.accesses::cpu.data        98358                       # number of SwapReq accesses(hits+misses) (Count)
system.cpu.dcache.SwapReq.accesses::total        98358                       # number of SwapReq accesses(hits+misses) (Count)
system.cpu.dcache.SwapReq.missRate::cpu.data     0.000010                       # miss rate for SwapReq accesses (Ratio)
system.cpu.dcache.SwapReq.missRate::total     0.000010                       # miss rate for SwapReq accesses (Ratio)
system.cpu.dcache.SwapReq.avgMissLatency::cpu.data        76000                       # average SwapReq miss latency ((Tick/Count))
system.cpu.dcache.SwapReq.avgMissLatency::total        76000                       # average SwapReq miss latency ((Tick/Count))
system.cpu.dcache.SwapReq.mshrHits::cpu.data            1                       # number of SwapReq MSHR hits (Count)
system.cpu.dcache.SwapReq.mshrHits::total            1                       # number of SwapReq MSHR hits (Count)
system.cpu.dcache.WriteLineReq.misses::cpu.data            9                       # number of WriteLineReq misses (Count)
system.cpu.dcache.WriteLineReq.misses::total            9                       # number of WriteLineReq misses (Count)
system.cpu.dcache.WriteLineReq.missLatency::cpu.data        96998                       # number of WriteLineReq miss ticks (Tick)
system.cpu.dcache.WriteLineReq.missLatency::total        96998                       # number of WriteLineReq miss ticks (Tick)
system.cpu.dcache.WriteLineReq.accesses::cpu.data            9                       # number of WriteLineReq accesses(hits+misses) (Count)
system.cpu.dcache.WriteLineReq.accesses::total            9                       # number of WriteLineReq accesses(hits+misses) (Count)
system.cpu.dcache.WriteLineReq.missRate::cpu.data            1                       # miss rate for WriteLineReq accesses (Ratio)
system.cpu.dcache.WriteLineReq.missRate::total            1                       # miss rate for WriteLineReq accesses (Ratio)
system.cpu.dcache.WriteLineReq.avgMissLatency::cpu.data 10777.555556                       # average WriteLineReq miss latency ((Tick/Count))
system.cpu.dcache.WriteLineReq.avgMissLatency::total 10777.555556                       # average WriteLineReq miss latency ((Tick/Count))
system.cpu.dcache.WriteLineReq.mshrMisses::cpu.data            9                       # number of WriteLineReq MSHR misses (Count)
system.cpu.dcache.WriteLineReq.mshrMisses::total            9                       # number of WriteLineReq MSHR misses (Count)
system.cpu.dcache.WriteLineReq.mshrMissLatency::cpu.data        87998                       # number of WriteLineReq MSHR miss ticks (Tick)
system.cpu.dcache.WriteLineReq.mshrMissLatency::total        87998                       # number of WriteLineReq MSHR miss ticks (Tick)
system.cpu.dcache.WriteLineReq.mshrMissRate::cpu.data            1                       # mshr miss rate for WriteLineReq accesses (Ratio)
system.cpu.dcache.WriteLineReq.mshrMissRate::total            1                       # mshr miss rate for WriteLineReq accesses (Ratio)
system.cpu.dcache.WriteLineReq.avgMshrMissLatency::cpu.data  9777.555556                       # average WriteLineReq mshr miss latency ((Tick/Count))
system.cpu.dcache.WriteLineReq.avgMshrMissLatency::total  9777.555556                       # average WriteLineReq mshr miss latency ((Tick/Count))
system.cpu.dcache.WriteReq.hits::cpu.data     14024065                       # number of WriteReq hits (Count)
system.cpu.dcache.WriteReq.hits::total       14024065                       # number of WriteReq hits (Count)
system.cpu.dcache.WriteReq.misses::cpu.data        36116                       # number of WriteReq misses (Count)
system.cpu.dcache.WriteReq.misses::total        36116                       # number of WriteReq misses (Count)
system.cpu.dcache.WriteReq.missLatency::cpu.data   1214756094                       # number of WriteReq miss ticks (Tick)
system.cpu.dcache.WriteReq.missLatency::total   1214756094                       # number of WriteReq miss ticks (Tick)
system.cpu.dcache.WriteReq.accesses::cpu.data     14060181                       # number of WriteReq accesses(hits+misses) (Count)
system.cpu.dcache.WriteReq.accesses::total     14060181                       # number of WriteReq accesses(hits+misses) (Count)
system.cpu.dcache.WriteReq.missRate::cpu.data     0.002569                       # miss rate for WriteReq accesses (Ratio)
system.cpu.dcache.WriteReq.missRate::total     0.002569                       # miss rate for WriteReq accesses (Ratio)
system.cpu.dcache.WriteReq.avgMissLatency::cpu.data 33634.845885                       # average WriteReq miss latency ((Tick/Count))
system.cpu.dcache.WriteReq.avgMissLatency::total 33634.845885                       # average WriteReq miss latency ((Tick/Count))
system.cpu.dcache.WriteReq.mshrHits::cpu.data        11384                       # number of WriteReq MSHR hits (Count)
system.cpu.dcache.WriteReq.mshrHits::total        11384                       # number of WriteReq MSHR hits (Count)
system.cpu.dcache.WriteReq.mshrMisses::cpu.data        24732                       # number of WriteReq MSHR misses (Count)
system.cpu.dcache.WriteReq.mshrMisses::total        24732                       # number of WriteReq MSHR misses (Count)
system.cpu.dcache.WriteReq.mshrMissLatency::cpu.data    830890645                       # number of WriteReq MSHR miss ticks (Tick)
system.cpu.dcache.WriteReq.mshrMissLatency::total    830890645                       # number of WriteReq MSHR miss ticks (Tick)
system.cpu.dcache.WriteReq.mshrMissRate::cpu.data     0.001759                       # mshr miss rate for WriteReq accesses (Ratio)
system.cpu.dcache.WriteReq.mshrMissRate::total     0.001759                       # mshr miss rate for WriteReq accesses (Ratio)
system.cpu.dcache.WriteReq.avgMshrMissLatency::cpu.data 33595.772481                       # average WriteReq mshr miss latency ((Tick/Count))
system.cpu.dcache.WriteReq.avgMshrMissLatency::total 33595.772481                       # average WriteReq mshr miss latency ((Tick/Count))
system.cpu.dcache.power_state.pwrStateResidencyTicks::UNDEFINED  51198708500                       # Cumulative time (in ticks) in various power states (Tick)
system.cpu.dcache.tags.tagsInUse           511.215380                       # Average ticks per tags in use ((Tick/Count))
system.cpu.dcache.tags.totalRefs             34061899                       # Total number of references to valid blocks. (Count)
system.cpu.dcache.tags.sampledRefs            2151126                       # Sample count of references to valid blocks. (Count)
system.cpu.dcache.tags.avgRefs              15.834451                       # Average number of references to valid blocks. ((Count/Count))
system.cpu.dcache.tags.warmupTick              145000                       # The tick when the warmup percentage was hit. (Tick)
system.cpu.dcache.tags.occupancies::cpu.data   511.215380                       # Average occupied blocks per tick, per requestor ((Count/Tick))
system.cpu.dcache.tags.avgOccs::cpu.data     0.998468                       # Average percentage of cache occupancy ((Ratio/Tick))
system.cpu.dcache.tags.avgOccs::total        0.998468                       # Average percentage of cache occupancy ((Ratio/Tick))
system.cpu.dcache.tags.occupanciesTaskId::1024          512                       # Occupied blocks per task id (Count)
system.cpu.dcache.tags.ageTaskId_1024::0           65                       # Occupied blocks per task id, per block age (Count)
system.cpu.dcache.tags.ageTaskId_1024::1           26                       # Occupied blocks per task id, per block age (Count)
system.cpu.dcache.tags.ageTaskId_1024::2          205                       # Occupied blocks per task id, per block age (Count)
system.cpu.dcache.tags.ageTaskId_1024::3          215                       # Occupied blocks per task id, per block age (Count)
system.cpu.dcache.tags.ageTaskId_1024::4            1                       # Occupied blocks per task id, per block age (Count)
system.cpu.dcache.tags.ratioOccsTaskId::1024            1                       # Ratio of occupied blocks and all blocks, per task id (Ratio)
system.cpu.dcache.tags.tagAccesses           70394020                       # Number of tag accesses (Count)
system.cpu.dcache.tags.dataAccesses          70394020                       # Number of data accesses (Count)
system.cpu.dcache.tags.power_state.pwrStateResidencyTicks::UNDEFINED  51198708500                       # Cumulative time (in ticks) in various power states (Tick)
system.cpu.decode.idleCycles                 11160756                       # Number of cycles decode is idle (Cycle)
system.cpu.decode.blockedCycles              69169814                       # Number of cycles decode is blocked (Cycle)
system.cpu.decode.runCycles                  16514737                       # Number of cycles decode is running (Cycle)
system.cpu.decode.unblockCycles               5102889                       # Number of cycles decode is unblocking (Cycle)
system.cpu.decode.squashCycles                 151268                       # Number of cycles decode is squashing (Cycle)
system.cpu.decode.branchResolved              8295765                       # Number of times decode resolved a branch (Count)
system.cpu.decode.branchMispred                  1983                       # Number of times decode detected a branch misprediction (Count)
system.cpu.decode.decodedInsts              131892659                       # Number of instructions handled by decode (Count)
system.cpu.decode.squashedInsts                 12330                       # Number of squashed instructions handled by decode (Count)
system.cpu.fetch.icacheStallCycles           17109731                       # Number of cycles fetch is stalled on an Icache miss (Cycle)
system.cpu.fetch.insts                      124772506                       # Number of instructions fetch has processed (Count)
system.cpu.fetch.branches                    17385677                       # Number of branches that fetch encountered (Count)
system.cpu.fetch.predictedBranches            9422407                       # Number of branches that fetch has predicted taken (Count)
system.cpu.fetch.cycles                      84836363                       # Number of cycles fetch has run and was not squashing or blocked (Cycle)
system.cpu.fetch.squashCycles                  306484                       # Number of cycles fetch has spent squashing (Cycle)
system.cpu.fetch.miscStallCycles                    8                       # Number of cycles fetch has spent waiting on interrupts, or bad addresses, or out of MSHRs (Cycle)
system.cpu.fetch.icacheWaitRetryStallCycles          120                       # Number of stall cycles due to full MSHR (Cycle)
system.cpu.fetch.cacheLines                  16650740                       # Number of cache lines fetched (Count)
system.cpu.fetch.icacheSquashes                 46674                       # Number of outstanding Icache misses that were squashed (Count)
system.cpu.fetch.nisnDist::samples          102099464                       # Number of instructions fetched each cycle (Total) (Count)
system.cpu.fetch.nisnDist::mean              1.313062                       # Number of instructions fetched each cycle (Total) (Count)
system.cpu.fetch.nisnDist::stdev             2.639675                       # Number of instructions fetched each cycle (Total) (Count)
system.cpu.fetch.nisnDist::underflows               0      0.00%      0.00% # Number of instructions fetched each cycle (Total) (Count)
system.cpu.fetch.nisnDist::0                 74539347     73.01%     73.01% # Number of instructions fetched each cycle (Total) (Count)
system.cpu.fetch.nisnDist::1                  6255327      6.13%     79.13% # Number of instructions fetched each cycle (Total) (Count)
system.cpu.fetch.nisnDist::2                  2898148      2.84%     81.97% # Number of instructions fetched each cycle (Total) (Count)
system.cpu.fetch.nisnDist::3                  1750911      1.71%     83.69% # Number of instructions fetched each cycle (Total) (Count)
system.cpu.fetch.nisnDist::4                  2027450      1.99%     85.67% # Number of instructions fetched each cycle (Total) (Count)
system.cpu.fetch.nisnDist::5                  1223569      1.20%     86.87% # Number of instructions fetched each cycle (Total) (Count)
system.cpu.fetch.nisnDist::6                  1758103      1.72%     88.59% # Number of instructions fetched each cycle (Total) (Count)
system.cpu.fetch.nisnDist::7                  1190598      1.17%     89.76% # Number of instructions fetched each cycle (Total) (Count)
system.cpu.fetch.nisnDist::8                 10456011     10.24%    100.00% # Number of instructions fetched each cycle (Total) (Count)
system.cpu.fetch.nisnDist::overflows                0      0.00%    100.00% # Number of instructions fetched each cycle (Total) (Count)
system.cpu.fetch.nisnDist::min_value                0                       # Number of instructions fetched each cycle (Total) (Count)
system.cpu.fetch.nisnDist::max_value                8                       # Number of instructions fetched each cycle (Total) (Count)
system.cpu.fetch.nisnDist::total            102099464                       # Number of instructions fetched each cycle (Total) (Count)
system.cpu.fetch.branchRate                  0.169786                       # Number of branch fetches per cycle (Ratio)
system.cpu.fetch.rate                        1.218512                       # Number of inst fetches per cycle ((Count/Cycle))
system.cpu.icache.demandHits::cpu.inst       16636241                       # number of demand (read+write) hits (Count)
system.cpu.icache.demandHits::total          16636241                       # number of demand (read+write) hits (Count)
system.cpu.icache.overallHits::cpu.inst      16636241                       # number of overall hits (Count)
system.cpu.icache.overallHits::total         16636241                       # number of overall hits (Count)
system.cpu.icache.demandMisses::cpu.inst        14499                       # number of demand (read+write) misses (Count)
system.cpu.icache.demandMisses::total           14499                       # number of demand (read+write) misses (Count)
system.cpu.icache.overallMisses::cpu.inst        14499                       # number of overall misses (Count)
system.cpu.icache.overallMisses::total          14499                       # number of overall misses (Count)
system.cpu.icache.demandMissLatency::cpu.inst    409539997                       # number of demand (read+write) miss ticks (Tick)
system.cpu.icache.demandMissLatency::total    409539997                       # number of demand (read+write) miss ticks (Tick)
system.cpu.icache.overallMissLatency::cpu.inst    409539997                       # number of overall miss ticks (Tick)
system.cpu.icache.overallMissLatency::total    409539997                       # number of overall miss ticks (Tick)
system.cpu.icache.demandAccesses::cpu.inst     16650740                       # number of demand (read+write) accesses (Count)
system.cpu.icache.demandAccesses::total      16650740                       # number of demand (read+write) accesses (Count)
system.cpu.icache.overallAccesses::cpu.inst     16650740                       # number of overall (read+write) accesses (Count)
system.cpu.icache.overallAccesses::total     16650740                       # number of overall (read+write) accesses (Count)
system.cpu.icache.demandMissRate::cpu.inst     0.000871                       # miss rate for demand accesses (Ratio)
system.cpu.icache.demandMissRate::total      0.000871                       # miss rate for demand accesses (Ratio)
system.cpu.icache.overallMissRate::cpu.inst     0.000871                       # miss rate for overall accesses (Ratio)
system.cpu.icache.overallMissRate::total     0.000871                       # miss rate for overall accesses (Ratio)
system.cpu.icache.demandAvgMissLatency::cpu.inst 28246.085730                       # average overall miss latency ((Cycle/Count))
system.cpu.icache.demandAvgMissLatency::total 28246.085730                       # average overall miss latency ((Cycle/Count))
system.cpu.icache.overallAvgMissLatency::cpu.inst 28246.085730                       # average overall miss latency ((Cycle/Count))
system.cpu.icache.overallAvgMissLatency::total 28246.085730                       # average overall miss latency ((Cycle/Count))
system.cpu.icache.blockedCycles::no_mshrs         1813                       # number of cycles access was blocked (Cycle)
system.cpu.icache.blockedCycles::no_targets            0                       # number of cycles access was blocked (Cycle)
system.cpu.icache.blockedCauses::no_mshrs           23                       # number of times access was blocked (Count)
system.cpu.icache.blockedCauses::no_targets            0                       # number of times access was blocked (Count)
system.cpu.icache.avgBlocked::no_mshrs      78.826087                       # average number of cycles each access was blocked ((Cycle/Count))
system.cpu.icache.avgBlocked::no_targets          nan                       # average number of cycles each access was blocked ((Cycle/Count))
system.cpu.icache.writebacks::writebacks        13152                       # number of writebacks (Count)
system.cpu.icache.writebacks::total             13152                       # number of writebacks (Count)
system.cpu.icache.demandMshrHits::cpu.inst          848                       # number of demand (read+write) MSHR hits (Count)
system.cpu.icache.demandMshrHits::total           848                       # number of demand (read+write) MSHR hits (Count)
system.cpu.icache.overallMshrHits::cpu.inst          848                       # number of overall MSHR hits (Count)
system.cpu.icache.overallMshrHits::total          848                       # number of overall MSHR hits (Count)
system.cpu.icache.demandMshrMisses::cpu.inst        13651                       # number of demand (read+write) MSHR misses (Count)
system.cpu.icache.demandMshrMisses::total        13651                       # number of demand (read+write) MSHR misses (Count)
system.cpu.icache.overallMshrMisses::cpu.inst        13651                       # number of overall MSHR misses (Count)
system.cpu.icache.overallMshrMisses::total        13651                       # number of overall MSHR misses (Count)
system.cpu.icache.demandMshrMissLatency::cpu.inst    370435998                       # number of demand (read+write) MSHR miss ticks (Tick)
system.cpu.icache.demandMshrMissLatency::total    370435998                       # number of demand (read+write) MSHR miss ticks (Tick)
system.cpu.icache.overallMshrMissLatency::cpu.inst    370435998                       # number of overall MSHR miss ticks (Tick)
system.cpu.icache.overallMshrMissLatency::total    370435998                       # number of overall MSHR miss ticks (Tick)
system.cpu.icache.demandMshrMissRate::cpu.inst     0.000820                       # mshr miss ratio for demand accesses (Ratio)
system.cpu.icache.demandMshrMissRate::total     0.000820                       # mshr miss ratio for demand accesses (Ratio)
system.cpu.icache.overallMshrMissRate::cpu.inst     0.000820                       # mshr miss ratio for overall accesses (Ratio)
system.cpu.icache.overallMshrMissRate::total     0.000820                       # mshr miss ratio for overall accesses (Ratio)
system.cpu.icache.demandAvgMshrMissLatency::cpu.inst 27136.180353                       # average overall mshr miss latency ((Cycle/Count))
system.cpu.icache.demandAvgMshrMissLatency::total 27136.180353                       # average overall mshr miss latency ((Cycle/Count))
system.cpu.icache.overallAvgMshrMissLatency::cpu.inst 27136.180353                       # average overall mshr miss latency ((Cycle/Count))
system.cpu.icache.overallAvgMshrMissLatency::total 27136.180353                       # average overall mshr miss latency ((Cycle/Count))
system.cpu.icache.replacements                  13152                       # number of replacements (Count)
system.cpu.icache.ReadReq.hits::cpu.inst     16636241                       # number of ReadReq hits (Count)
system.cpu.icache.ReadReq.hits::total        16636241                       # number of ReadReq hits (Count)
system.cpu.icache.ReadReq.misses::cpu.inst        14499                       # number of ReadReq misses (Count)
system.cpu.icache.ReadReq.misses::total         14499                       # number of ReadReq misses (Count)
system.cpu.icache.ReadReq.missLatency::cpu.inst    409539997                       # number of ReadReq miss ticks (Tick)
system.cpu.icache.ReadReq.missLatency::total    409539997                       # number of ReadReq miss ticks (Tick)
system.cpu.icache.ReadReq.accesses::cpu.inst     16650740                       # number of ReadReq accesses(hits+misses) (Count)
system.cpu.icache.ReadReq.accesses::total     16650740                       # number of ReadReq accesses(hits+misses) (Count)
system.cpu.icache.ReadReq.missRate::cpu.inst     0.000871                       # miss rate for ReadReq accesses (Ratio)
system.cpu.icache.ReadReq.missRate::total     0.000871                       # miss rate for ReadReq accesses (Ratio)
system.cpu.icache.ReadReq.avgMissLatency::cpu.inst 28246.085730                       # average ReadReq miss latency ((Tick/Count))
system.cpu.icache.ReadReq.avgMissLatency::total 28246.085730                       # average ReadReq miss latency ((Tick/Count))
system.cpu.icache.ReadReq.mshrHits::cpu.inst          848                       # number of ReadReq MSHR hits (Count)
system.cpu.icache.ReadReq.mshrHits::total          848                       # number of ReadReq MSHR hits (Count)
system.cpu.icache.ReadReq.mshrMisses::cpu.inst        13651                       # number of ReadReq MSHR misses (Count)
system.cpu.icache.ReadReq.mshrMisses::total        13651                       # number of ReadReq MSHR misses (Count)
system.cpu.icache.ReadReq.mshrMissLatency::cpu.inst    370435998                       # number of ReadReq MSHR miss ticks (Tick)
system.cpu.icache.ReadReq.mshrMissLatency::total    370435998                       # number of ReadReq MSHR miss ticks (Tick)
system.cpu.icache.ReadReq.mshrMissRate::cpu.inst     0.000820                       # mshr miss rate for ReadReq accesses (Ratio)
system.cpu.icache.ReadReq.mshrMissRate::total     0.000820                       # mshr miss rate for ReadReq accesses (Ratio)
system.cpu.icache.ReadReq.avgMshrMissLatency::cpu.inst 27136.180353                       # average ReadReq mshr miss latency ((Tick/Count))
system.cpu.icache.ReadReq.avgMshrMissLatency::total 27136.180353                       # average ReadReq mshr miss latency ((Tick/Count))
system.cpu.icache.power_state.pwrStateResidencyTicks::UNDEFINED  51198708500                       # Cumulative time (in ticks) in various power states (Tick)
system.cpu.icache.tags.tagsInUse           492.102377                       # Average ticks per tags in use ((Tick/Count))
system.cpu.icache.tags.totalRefs             16649891                       # Total number of references to valid blocks. (Count)
system.cpu.icache.tags.sampledRefs              13650                       # Sample count of references to valid blocks. (Count)
system.cpu.icache.tags.avgRefs            1219.772234                       # Average number of references to valid blocks. ((Count/Count))
system.cpu.icache.tags.warmupTick               77000                       # The tick when the warmup percentage was hit. (Tick)
system.cpu.icache.tags.occupancies::cpu.inst   492.102377                       # Average occupied blocks per tick, per requestor ((Count/Tick))
system.cpu.icache.tags.avgOccs::cpu.inst     0.961137                       # Average percentage of cache occupancy ((Ratio/Tick))
system.cpu.icache.tags.avgOccs::total        0.961137                       # Average percentage of cache occupancy ((Ratio/Tick))
system.cpu.icache.tags.occupanciesTaskId::1024          498                       # Occupied blocks per task id (Count)
system.cpu.icache.tags.ageTaskId_1024::0           94                       # Occupied blocks per task id, per block age (Count)
system.cpu.icache.tags.ageTaskId_1024::2            1                       # Occupied blocks per task id, per block age (Count)
system.cpu.icache.tags.ageTaskId_1024::3          184                       # Occupied blocks per task id, per block age (Count)
system.cpu.icache.tags.ageTaskId_1024::4          219                       # Occupied blocks per task id, per block age (Count)
system.cpu.icache.tags.ratioOccsTaskId::1024     0.972656                       # Ratio of occupied blocks and all blocks, per task id (Ratio)
system.cpu.icache.tags.tagAccesses           33315130                       # Number of tag accesses (Count)
system.cpu.icache.tags.dataAccesses          33315130                       # Number of data accesses (Count)
system.cpu.icache.tags.power_state.pwrStateResidencyTicks::UNDEFINED  51198708500                       # Cumulative time (in ticks) in various power states (Tick)
system.cpu.iew.idleCycles                           0                       # Number of cycles IEW is idle (Cycle)
system.cpu.iew.squashCycles                    151268                       # Number of cycles IEW is squashing (Cycle)
system.cpu.iew.blockCycles                    1294513                       # Number of cycles IEW is blocking (Cycle)
[...]
system.mem_ctrls.dram.bwRead::cpu.inst       17062930                       # Total read bandwidth from this memory ((Byte/Second))
system.mem_ctrls.dram.bwRead::cpu.data     2688945328                       # Total read bandwidth from this memory ((Byte/Second))
system.mem_ctrls.dram.bwRead::total        2706008258                       # Total read bandwidth from this memory ((Byte/Second))
system.mem_ctrls.dram.bwInstRead::cpu.inst     17062930                       # Instruction read bandwidth from this memory ((Byte/Second))
system.mem_ctrls.dram.bwInstRead::total      17062930                       # Instruction read bandwidth from this memory ((Byte/Second))
system.mem_ctrls.dram.bwWrite::writebacks     30828278                       # Write bandwidth from this memory ((Byte/Second))
system.mem_ctrls.dram.bwWrite::total         30828278                       # Write bandwidth from this memory ((Byte/Second))
system.mem_ctrls.dram.bwTotal::writebacks     30828278                       # Total bandwidth to/from this memory ((Byte/Second))
system.mem_ctrls.dram.bwTotal::cpu.inst      17062930                       # Total bandwidth to/from this memory ((Byte/Second))
system.mem_ctrls.dram.bwTotal::cpu.data    2688945328                       # Total bandwidth to/from this memory ((Byte/Second))
system.mem_ctrls.dram.bwTotal::total       2736836536                       # Total bandwidth to/from this memory ((Byte/Second))
system.mem_ctrls.dram.readBursts              2133210                       # Number of DRAM read bursts (Count)
system.mem_ctrls.dram.writeBursts                8966                       # Number of DRAM write bursts (Count)
system.mem_ctrls.dram.perBankRdBursts::0       133030                       # Per bank write bursts (Count)
system.mem_ctrls.dram.perBankRdBursts::1       133071                       # Per bank write bursts (Count)
system.mem_ctrls.dram.perBankRdBursts::2       133129                       # Per bank write bursts (Count)
system.mem_ctrls.dram.perBankRdBursts::3       133079                       # Per bank write bursts (Count)
system.mem_ctrls.dram.perBankRdBursts::4       134345                       # Per bank write bursts (Count)
system.mem_ctrls.dram.perBankRdBursts::5       133296                       # Per bank write bursts (Count)
system.mem_ctrls.dram.perBankRdBursts::6       132812                       # Per bank write bursts (Count)
system.mem_ctrls.dram.perBankRdBursts::7       132899                       # Per bank write bursts (Count)
system.mem_ctrls.dram.perBankRdBursts::8       133977                       # Per bank write bursts (Count)
system.mem_ctrls.dram.perBankRdBursts::9       132998                       # Per bank write bursts (Count)
system.mem_ctrls.dram.perBankRdBursts::10       134253                       # Per bank write bursts (Count)
system.mem_ctrls.dram.perBankRdBursts::11       133056                       # Per bank write bursts (Count)
system.mem_ctrls.dram.perBankRdBursts::12       134459                       # Per bank write bursts (Count)
system.mem_ctrls.dram.perBankRdBursts::13       132930                       # Per bank write bursts (Count)
system.mem_ctrls.dram.perBankRdBursts::14       132956                       # Per bank write bursts (Count)
system.mem_ctrls.dram.perBankRdBursts::15       132920                       # Per bank write bursts (Count)
system.mem_ctrls.dram.perBankWrBursts::0          469                       # Per bank write bursts (Count)
system.mem_ctrls.dram.perBankWrBursts::1          599                       # Per bank write bursts (Count)
system.mem_ctrls.dram.perBankWrBursts::2          540                       # Per bank write bursts (Count)
system.mem_ctrls.dram.perBankWrBursts::3          574                       # Per bank write bursts (Count)
system.mem_ctrls.dram.perBankWrBursts::4          511                       # Per bank write bursts (Count)
system.mem_ctrls.dram.perBankWrBursts::5          589                       # Per bank write bursts (Count)
system.mem_ctrls.dram.perBankWrBursts::6          615                       # Per bank write bursts (Count)
system.mem_ctrls.dram.perBankWrBursts::7          554                       # Per bank write bursts (Count)
system.mem_ctrls.dram.perBankWrBursts::8          767                       # Per bank write bursts (Count)
system.mem_ctrls.dram.perBankWrBursts::9          590                       # Per bank write bursts (Count)
system.mem_ctrls.dram.perBankWrBursts::10          457                       # Per bank write bursts (Count)
system.mem_ctrls.dram.perBankWrBursts::11          687                       # Per bank write bursts (Count)
system.mem_ctrls.dram.perBankWrBursts::12          516                       # Per bank write bursts (Count)
system.mem_ctrls.dram.perBankWrBursts::13          587                       # Per bank write bursts (Count)
system.mem_ctrls.dram.perBankWrBursts::14          456                       # Per bank write bursts (Count)
system.mem_ctrls.dram.perBankWrBursts::15          455                       # Per bank write bursts (Count)
system.mem_ctrls.dram.totQLat             15541841000                       # Total ticks spent queuing (Tick)
system.mem_ctrls.dram.totBusLat           10666050000                       # Total ticks spent in databus transfers (Tick)
system.mem_ctrls.dram.totMemAccLat        55539528500                       # Total ticks spent from burst creation until serviced by the DRAM (Tick)
system.mem_ctrls.dram.avgQLat                 7285.66                       # Average queueing delay per DRAM burst ((Tick/Count))
system.mem_ctrls.dram.avgBusLat               5000.00                       # Average bus latency per DRAM burst ((Tick/Count))
system.mem_ctrls.dram.avgMemAccLat           26035.66                       # Average memory access latency per DRAM burst ((Tick/Count))
system.mem_ctrls.dram.readRowHits             1926953                       # Number of row buffer hits during reads (Count)
system.mem_ctrls.dram.writeRowHits               7387                       # Number of row buffer hits during writes (Count)
system.mem_ctrls.dram.readRowHitRate            90.33                       # Row buffer hit rate for reads (Ratio)
system.mem_ctrls.dram.writeRowHitRate           82.39                       # Row buffer hit rate for writes (Ratio)
system.mem_ctrls.dram.bytesPerActivate::samples       207822                       # Bytes accessed per row activation (Byte)
system.mem_ctrls.dram.bytesPerActivate::mean   659.686078                       # Bytes accessed per row activation (Byte)
system.mem_ctrls.dram.bytesPerActivate::gmean   500.787728                       # Bytes accessed per row activation (Byte)
system.mem_ctrls.dram.bytesPerActivate::stdev   367.214652                       # Bytes accessed per row activation (Byte)
system.mem_ctrls.dram.bytesPerActivate::0-127        19813      9.53%      9.53% # Bytes accessed per row activation (Byte)
system.mem_ctrls.dram.bytesPerActivate::128-255        21265     10.23%     19.77% # Bytes accessed per row activation (Byte)
system.mem_ctrls.dram.bytesPerActivate::256-383        17941      8.63%     28.40% # Bytes accessed per row activation (Byte)
system.mem_ctrls.dram.bytesPerActivate::384-511         1226      0.59%     28.99% # Bytes accessed per row activation (Byte)
system.mem_ctrls.dram.bytesPerActivate::512-639        46614     22.43%     51.42% # Bytes accessed per row activation (Byte)
system.mem_ctrls.dram.bytesPerActivate::640-767         2011      0.97%     52.39% # Bytes accessed per row activation (Byte)
system.mem_ctrls.dram.bytesPerActivate::768-895         2096      1.01%     53.39% # Bytes accessed per row activation (Byte)
system.mem_ctrls.dram.bytesPerActivate::896-1023         1988      0.96%     54.35% # Bytes accessed per row activation (Byte)
system.mem_ctrls.dram.bytesPerActivate::1024-1151        94868     45.65%    100.00% # Bytes accessed per row activation (Byte)
system.mem_ctrls.dram.bytesPerActivate::total       207822                       # Bytes accessed per row activation (Byte)
system.mem_ctrls.dram.bytesRead             136525440                       # Total bytes read (Byte)
system.mem_ctrls.dram.bytesWritten             573824                       # Total bytes written (Byte)
system.mem_ctrls.dram.avgRdBW             2666.579763                       # Average DRAM read bandwidth in MiBytes/s ((Byte/Second))
system.mem_ctrls.dram.avgWrBW               11.207783                       # Average DRAM write bandwidth in MiBytes/s ((Byte/Second))
system.mem_ctrls.dram.peakBW                 12800.00                       # Theoretical peak bandwidth in MiByte/s ((Byte/Second))
system.mem_ctrls.dram.busUtil                   20.92                       # Data bus utilization in percentage (Ratio)
system.mem_ctrls.dram.busUtilRead               20.83                       # Data bus utilization in percentage for reads (Ratio)
system.mem_ctrls.dram.busUtilWrite               0.09                       # Data bus utilization in percentage for writes (Ratio)
system.mem_ctrls.dram.pageHitRate               90.30                       # Row buffer hit rate, read and write combined (Ratio)
system.mem_ctrls.dram.power_state.pwrStateResidencyTicks::UNDEFINED  51198708500                       # Cumulative time (in ticks) in various power states (Tick)
system.mem_ctrls.dram.rank0.actEnergy       818465340                       # Energy for activate commands per rank (pJ) (Joule)
system.mem_ctrls.dram.rank0.preEnergy       435005670                       # Energy for precharge commands per rank (pJ) (Joule)
system.mem_ctrls.dram.rank0.readEnergy     7608812400                       # Energy for read commands per rank (pJ) (Joule)
system.mem_ctrls.dram.rank0.writeEnergy      23234220                       # Energy for write commands per rank (pJ) (Joule)
system.mem_ctrls.dram.rank0.refreshEnergy 4041258000.000000                       # Energy for refresh commands per rank (pJ) (Joule)
system.mem_ctrls.dram.rank0.actBackEnergy  20262387360                       # Energy for active background per rank (pJ) (Joule)
system.mem_ctrls.dram.rank0.preBackEnergy   2597241120                       # Energy for precharge background per rank (pJ) (Joule)
system.mem_ctrls.dram.rank0.actPowerDownEnergy            0                       # Energy for active power-down per rank (pJ) (Joule)
system.mem_ctrls.dram.rank0.prePowerDownEnergy            0                       # Energy for precharge power-down per rank (pJ) (Joule)
system.mem_ctrls.dram.rank0.selfRefreshEnergy            0                       # Energy for self refresh per rank (pJ) (Joule)
system.mem_ctrls.dram.rank0.totalEnergy   35786404110                       # Total energy per rank (pJ) (Joule)
system.mem_ctrls.dram.rank0.averagePower   698.970837                       # Core power per rank (mW) (Watt)
system.mem_ctrls.dram.rank0.totalIdleTime            0                       # Total Idle time Per DRAM Rank (Tick)
system.mem_ctrls.dram.rank0.pwrStateTime::IDLE   6574594000                       # Time in different power states (Tick)
system.mem_ctrls.dram.rank0.pwrStateTime::REF   1709500000                       # Time in different power states (Tick)
system.mem_ctrls.dram.rank0.pwrStateTime::SREF            0                       # Time in different power states (Tick)
system.mem_ctrls.dram.rank0.pwrStateTime::PRE_PDN            0                       # Time in different power states (Tick)
system.mem_ctrls.dram.rank0.pwrStateTime::ACT  42914614500                       # Time in different power states (Tick)
system.mem_ctrls.dram.rank0.pwrStateTime::ACT_PDN            0                       # Time in different power states (Tick)
system.mem_ctrls.dram.rank1.actEnergy       665476560                       # Energy for activate commands per rank (pJ) (Joule)
system.mem_ctrls.dram.rank1.preEnergy       353678820                       # Energy for precharge commands per rank (pJ) (Joule)
system.mem_ctrls.dram.rank1.readEnergy     7622299860                       # Energy for read commands per rank (pJ) (Joule)
system.mem_ctrls.dram.rank1.writeEnergy      23568300                       # Energy for write commands per rank (pJ) (Joule)
system.mem_ctrls.dram.rank1.refreshEnergy 4041258000.000000                       # Energy for refresh commands per rank (pJ) (Joule)
system.mem_ctrls.dram.rank1.actBackEnergy  20176099620                       # Energy for active background per rank (pJ) (Joule)
system.mem_ctrls.dram.rank1.preBackEnergy   2669904480                       # Energy for precharge background per rank (pJ) (Joule)
system.mem_ctrls.dram.rank1.actPowerDownEnergy            0                       # Energy for active power-down per rank (pJ) (Joule)
system.mem_ctrls.dram.rank1.prePowerDownEnergy            0                       # Energy for precharge power-down per rank (pJ) (Joule)
system.mem_ctrls.dram.rank1.selfRefreshEnergy            0                       # Energy for self refresh per rank (pJ) (Joule)
system.mem_ctrls.dram.rank1.totalEnergy   35552285640                       # Total energy per rank (pJ) (Joule)
system.mem_ctrls.dram.rank1.averagePower   694.398095                       # Core power per rank (mW) (Watt)
system.mem_ctrls.dram.rank1.totalIdleTime            0                       # Total Idle time Per DRAM Rank (Tick)
system.mem_ctrls.dram.rank1.pwrStateTime::IDLE   6720661500                       # Time in different power states (Tick)
system.mem_ctrls.dram.rank1.pwrStateTime::REF   1709500000                       # Time in different power states (Tick)
system.mem_ctrls.dram.rank1.pwrStateTime::SREF            0                       # Time in different power states (Tick)
system.mem_ctrls.dram.rank1.pwrStateTime::PRE_PDN            0                       # Time in different power states (Tick)
system.mem_ctrls.dram.rank1.pwrStateTime::ACT  42768547000                       # Time in different power states (Tick)
system.mem_ctrls.dram.rank1.pwrStateTime::ACT_PDN            0                       # Time in different power states (Tick)
system.mem_ctrls.power_state.pwrStateResidencyTicks::UNDEFINED  51198708500                       # Cumulative time (in ticks) in various power states (Tick)
system.membus.transDist::ReadResp             2140035                       # Transaction distribution (Count)
system.membus.transDist::WritebackDirty         24662                       # Transaction distribution (Count)
system.membus.transDist::WritebackClean         13152                       # Transaction distribution (Count)
system.membus.transDist::CleanEvict           2125952                       # Transaction distribution (Count)
system.membus.transDist::ReadExReq              24717                       # Transaction distribution (Count)
system.membus.transDist::ReadExResp             24717                       # Transaction distribution (Count)
system.membus.transDist::ReadCleanReq           13651                       # Transaction distribution (Count)
system.membus.transDist::ReadSharedReq        2126385                       # Transaction distribution (Count)
system.membus.transDist::InvalidateReq             24                       # Transaction distribution (Count)
system.membus.pktCount_system.cpu.icache.mem_side_port::system.mem_ctrls.port        40453                       # Packet count per connected requestor and responder (Count)
system.membus.pktCount_system.cpu.dcache.mem_side_port::system.mem_ctrls.port      6452842                       # Packet count per connected requestor and responder (Count)
system.membus.pktCount::total                 6493295                       # Packet count per connected requestor and responder (Count)
system.membus.pktSize_system.cpu.icache.mem_side_port::system.mem_ctrls.port      1715328                       # Cumulative packet size per connected requestor and responder (Byte)
system.membus.pktSize_system.cpu.dcache.mem_side_port::system.mem_ctrls.port    139248896                       # Cumulative packet size per connected requestor and responder (Byte)
system.membus.pktSize::total                140964224                       # Cumulative packet size per connected requestor and responder (Byte)
system.membus.snoops                                0                       # Total snoops (Count)
system.membus.snoopTraffic                          0                       # Total snoop traffic (Byte)
system.membus.snoopFanout::samples            2164777                       # Request fanout histogram (Count)
system.membus.snoopFanout::mean              0.000001                       # Request fanout histogram (Count)
system.membus.snoopFanout::stdev             0.000961                       # Request fanout histogram (Count)
system.membus.snoopFanout::underflows               0      0.00%      0.00% # Request fanout histogram (Count)
system.membus.snoopFanout::0                  2164775    100.00%    100.00% # Request fanout histogram (Count)
system.membus.snoopFanout::1                        2      0.00%    100.00% # Request fanout histogram (Count)
system.membus.snoopFanout::2                        0      0.00%    100.00% # Request fanout histogram (Count)
system.membus.snoopFanout::overflows                0      0.00%    100.00% # Request fanout histogram (Count)
system.membus.snoopFanout::min_value                0                       # Request fanout histogram (Count)
system.membus.snoopFanout::max_value                1                       # Request fanout histogram (Count)
system.membus.snoopFanout::total              2164777                       # Request fanout histogram (Count)
system.membus.power_state.pwrStateResidencyTicks::UNDEFINED  51198708500                       # Cumulative time (in ticks) in various power states (Tick)
system.membus.reqLayer0.occupancy          5203878500                       # Layer occupancy (ticks) (Tick)
system.membus.reqLayer0.utilization               0.1                       # Layer utilization (Ratio)
system.membus.respLayer1.occupancy           68791250                       # Layer occupancy (ticks) (Tick)
system.membus.respLayer1.utilization              0.0                       # Layer utilization (Ratio)
system.membus.respLayer2.occupancy        11169178000                       # Layer occupancy (ticks) (Tick)
system.membus.respLayer2.utilization              0.2                       # Layer utilization (Ratio)
system.membus.snoop_filter.totRequests        4328543                       # Total number of requests made to the snoop filter. (Count)
system.membus.snoop_filter.hitSingleRequests      2163767                       # Number of requests hitting in the snoop filter with a single holder of the requested data. (Count)
system.membus.snoop_filter.hitMultiRequests            1                       # Number of requests hitting in the snoop filter with multiple (>1) holders of the requested data. (Count)
system.membus.snoop_filter.totSnoops                0                       # Total number of snoops made to the snoop filter. (Count)
system.membus.snoop_filter.hitSingleSnoops            0                       # Number of snoops hitting in the snoop filter with a single holder of the requested data. (Count)
system.membus.snoop_filter.hitMultiSnoops            0                       # Number of snoops hitting in the snoop filter with multiple (>1) holders of the requested data. (Count)
system.voltage_domain.voltage                       1                       # Voltage in Volts (Volt)
system.workload.inst.arm                            0                       # number of arm instructions executed (Count)
system.workload.inst.quiesce                        0                       # number of quiesce instructions executed (Count)

---------- End Simulation Statistics   ----------
