
---------- Begin Simulation Statistics ----------
simSeconds                                   0.064690                       # Number of seconds simulated (Second)
simTicks                                  64689761500                       # Number of ticks simulated (Tick)
finalTick                                 64689761500                       # Number of ticks from beginning of simulation (restored from checkpoints and never reset) (Tick)
simFreq                                  1000000000000                       # The number of ticks per simulated second ((Tick/Second))
hostSeconds                                    253.06                       # Real time elapsed on the host (Second)
hostTickRate                                255631830                       # The number of ticks simulated per host second (ticks/s) ((Tick/Second))
hostMemory                                     680484                       # Number of bytes of host memory used (Byte)
simInsts                                    146952332                       # Number of instructions simulated (Count)
simOps                                      158847536                       # Number of ops (including micro ops) simulated (Count)
hostInstRate                                   580705                       # Simulator instruction rate (inst/s) ((Count/Second))
hostOpRate                                     627711                       # Simulator op (including micro ops) rate (op/s) ((Count/Second))
system.clk_domain.clock                          1000                       # Clock period in ticks (Tick)
system.cpu.numCycles                        129379524                       # Number of cpu cycles simulated (Cycle)
system.cpu.numWorkItemsStarted                      0                       # Number of work items this cpu started (Count)
system.cpu.numWorkItemsCompleted                    0                       # Number of work items this cpu completed (Count)
system.cpu.instsAdded                       171193985                       # Number of instructions added to the IQ (excludes non-spec) (Count)
system.cpu.nonSpecInstsAdded                   196992                       # Number of non-speculative instructions added to the IQ (Count)
system.cpu.instsIssued                      170228352                       # Number of instructions issued (Count)
system.cpu.squashedInstsIssued                 307278                       # Number of squashed instructions issued (Count)
system.cpu.squashedInstsExamined             12543440                       # Number of squashed instructions iterated over during squash; mainly for profiling (Count)
system.cpu.squashedOperandsExamined           9110584                       # Number of squashed operands that are examined and possibly removed from graph (Count)
system.cpu.squashedNonSpecRemoved                 175                       # Number of squashed non-spec instructions that were removed (Count)
system.cpu.numIssuedDist::samples           126973981                       # Number of insts issued each cycle (Count)
system.cpu.numIssuedDist::mean               1.340655                       # Number of insts issued each cycle (Count)
system.cpu.numIssuedDist::stdev              1.816011                       # Number of insts issued each cycle (Count)
system.cpu.numIssuedDist::underflows                0      0.00%      0.00% # Number of insts issued each cycle (Count)
system.cpu.numIssuedDist::0                  64280038     50.62%     50.62% # Number of insts issued each cycle (Count)
system.cpu.numIssuedDist::1                  19529696     15.38%     66.01% # Number of insts issued each cycle (Count)
system.cpu.numIssuedDist::2                  14114321     11.12%     77.12% # Number of insts issued each cycle (Count)
system.cpu.numIssuedDist::3                  11578235      9.12%     86.24% # Number of insts issued each cycle (Count)
system.cpu.numIssuedDist::4                   8344474      6.57%     92.81% # Number of insts issued each cycle (Count)
system.cpu.numIssuedDist::5                   3925101      3.09%     95.90% # Number of insts issued each cycle (Count)
system.cpu.numIssuedDist::6                   2737177      2.16%     98.06% # Number of insts issued each cycle (Count)
system.cpu.numIssuedDist::7                   1410666      1.11%     99.17% # Number of insts issued each cycle (Count)
system.cpu.numIssuedDist::8                   1054273      0.83%    100.00% # Number of insts issued each cycle (Count)
system.cpu.numIssuedDist::overflows                 0      0.00%    100.00% # Number of insts issued each cycle (Count)
system.cpu.numIssuedDist::min_value                 0                       # Number of insts issued each cycle (Count)
system.cpu.numIssuedDist::max_value                 8                       # Number of insts issued each cycle (Count)
system.cpu.numIssuedDist::total             126973981                       # Number of insts issued each cycle (Count)
system.cpu.statFuBusy::No_OpClass                   0      0.00%      0.00% # attempts to use FU when none available (Count)
system.cpu.statFuBusy::IntAlu                  390234     11.94%     11.94% # attempts to use FU when none available (Count)
system.cpu.statFuBusy::IntMult                 248909      7.62%     19.56% # attempts to use FU when none available (Count)
system.cpu.statFuBusy::IntDiv                       0      0.00%     19.56% # attempts to use FU when none available (Count)
system.cpu.statFuBusy::FloatAdd                     0      0.00%     19.56% # attempts to use FU when none available (Count)
system.cpu.statFuBusy::FloatCmp                     0      0.00%     19.56% # attempts to use FU when none available (Count)
system.cpu.statFuBusy::FloatCvt                     0      0.00%     19.56% # attempts to use FU when none available (Count)
system.cpu.statFuBusy::FloatMult                    0      0.00%     19.56% # attempts to use FU when none available (Count)
system.cpu.statFuBusy::FloatMultAcc                 0      0.00%     19.56% # attempts to use FU when none available (Count)
system.cpu.statFuBusy::FloatDiv                     0      0.00%     19.56% # attempts to use FU when none available (Count)
system.cpu.statFuBusy::FloatMisc                    0      0.00%     19.56% # attempts to use FU when none available (Count)
system.cpu.statFuBusy::FloatSqrt                    0      0.00%     19.56% # attempts to use FU when none available (Count)
system.cpu.statFuBusy::SimdAdd                      0      0.00%     19.56% # attempts to use FU when none available (Count)
system.cpu.statFuBusy::SimdAddAcc                   0      0.00%     19.56% # attempts to use FU when none available (Count)
system.cpu.statFuBusy::SimdAlu                      1      0.00%     19.56% # attempts to use FU when none available (Count)
system.cpu.statFuBusy::SimdCmp                      6      0.00%     19.56% # attempts to use FU when none available (Count)
system.cpu.statFuBusy::SimdCvt                      0      0.00%     19.56% # attempts to use FU when none available (Count)
system.cpu.statFuBusy::SimdMisc                     0      0.00%     19.56% # attempts to use FU when none available (Count)
system.cpu.statFuBusy::SimdMult                     0      0.00%     19.56% # attempts to use FU when none available (Count)
system.cpu.statFuBusy::SimdMultAcc                  0      0.00%     19.56% # attempts to use FU when none available (Count)
system.cpu.statFuBusy::SimdShift                    0      0.00%     19.56% # attempts to use FU when none available (Count)
system.cpu.statFuBusy::SimdShiftAcc                 0      0.00%     19.56% # attempts to use FU when none available (Count)
system.cpu.statFuBusy::SimdDiv                      0      0.00%     19.56% # attempts to use FU when none available (Count)
system.cpu.statFuBusy::SimdSqrt                     0      0.00%     19.56% # attempts to use FU when none available (Count)
system.cpu.statFuBusy::SimdFloatAdd                 0      0.00%     19.56% # attempts to use FU when none available (Count)
system.cpu.statFuBusy::SimdFloatAlu                 0      0.00%     19.56% # attempts to use FU when none available (Count)
system.cpu.statFuBusy::SimdFloatCmp                 0      0.00%     19.56% # attempts to use FU when none available (Count)
system.cpu.statFuBusy::SimdFloatCvt                 0      0.00%     19.56% # attempts to use FU when none available (Count)
system.cpu.statFuBusy::SimdFloatDiv                 0      0.00%     19.56% # attempts to use FU when none available (Count)
system.cpu.statFuBusy::SimdFloatMisc                0      0.00%     19.56% # attempts to use FU when none available (Count)
system.cpu.statFuBusy::SimdFloatMult                0      0.00%     19.56% # attempts to use FU when none available (Count)
system.cpu.statFuBusy::SimdFloatMultAcc             0      0.00%     19.56% # attempts to use FU when none available (Count)
system.cpu.statFuBusy::SimdFloatSqrt                0      0.00%     19.56% # attempts to use FU when none available (Count)
system.cpu.statFuBusy::SimdReduceAdd                0      0.00%     19.56% # attempts to use FU when none available (Count)
system.cpu.statFuBusy::SimdReduceAlu                0      0.00%     19.56% # attempts to use FU when none available (Count)
system.cpu.statFuBusy::SimdReduceCmp                0      0.00%     19.56% # attempts to use FU when none available (Count)
system.cpu.statFuBusy::SimdFloatReduceAdd            0      0.00%     19.56% # attempts to use FU when none available (Count)
system.cpu.statFuBusy::SimdFloatReduceCmp            0      0.00%     19.56% # attempts to use FU when none available (Count)
system.cpu.statFuBusy::SimdAes                      0      0.00%     19.56% # attempts to use FU when none available (Count)
system.cpu.statFuBusy::SimdAesMix                   0      0.00%     19.56% # attempts to use FU when none available (Count)
system.cpu.statFuBusy::SimdSha1Hash                 0      0.00%     19.56% # attempts to use FU when none available (Count)
system.cpu.statFuBusy::SimdSha1Hash2                0      0.00%     19.56% # attempts to use FU when none available (Count)
system.cpu.statFuBusy::SimdSha256Hash               0      0.00%     19.56% # attempts to use FU when none available (Count)
system.cpu.statFuBusy::SimdSha256Hash2              0      0.00%     19.56% # attempts to use FU when none available (Count)
system.cpu.statFuBusy::SimdShaSigma2                0      0.00%     19.56% # attempts to use FU when none available (Count)
system.cpu.statFuBusy::SimdShaSigma3                0      0.00%     19.56% # attempts to use FU when none available (Count)
system.cpu.statFuBusy::SimdPredAlu                  0      0.00%     19.56% # attempts to use FU when none available (Count)
system.cpu.statFuBusy::MemRead                1394959     42.70%     62.26% # attempts to use FU when none available (Count)
system.cpu.statFuBusy::MemWrite               1232860     37.74%    100.00% # attempts to use FU when none available (Count)
system.cpu.statFuBusy::FloatMemRead                 0      0.00%    100.00% # attempts to use FU when none available (Count)
system.cpu.statFuBusy::FloatMemWrite                0      0.00%    100.00% # attempts to use FU when none available (Count)
system.cpu.statFuBusy::IprAccess                    0      0.00%    100.00% # attempts to use FU when none available (Count)
system.cpu.statFuBusy::InstPrefetch                 0      0.00%    100.00% # attempts to use FU when none available (Count)
system.cpu.statIssuedInstType_0::No_OpClass       131154      0.08%      0.08% # Number of instructions issued per FU type, per thread (Count)
system.cpu.statIssuedInstType_0::IntAlu     102425258     60.17%     60.25% # Number of instructions issued per FU type, per thread (Count)
system.cpu.statIssuedInstType_0::IntMult      1655534      0.97%     61.22% # Number of instructions issued per FU type, per thread (Count)
system.cpu.statIssuedInstType_0::IntDiv        330179      0.19%     61.41% # Number of instructions issued per FU type, per thread (Count)
system.cpu.statIssuedInstType_0::FloatAdd      2103706      1.24%     62.65% # Number of instructions issued per FU type, per thread (Count)
system.cpu.statIssuedInstType_0::FloatCmp        32768      0.02%     62.67% # Number of instructions issued per FU type, per thread (Count)
system.cpu.statIssuedInstType_0::FloatCvt            0      0.00%     62.67% # Number of instructions issued per FU type, per thread (Count)
system.cpu.statIssuedInstType_0::FloatMult      2097152      1.23%     63.90% # Number of instructions issued per FU type, per thread (Count)
system.cpu.statIssuedInstType_0::FloatMultAcc            0      0.00%     63.90% # Number of instructions issued per FU type, per thread (Count)
system.cpu.statIssuedInstType_0::FloatDiv            0      0.00%     63.90% # Number of instructions issued per FU type, per thread (Count)
system.cpu.statIssuedInstType_0::FloatMisc        75372      0.04%     63.94% # Number of instructions issued per FU type, per thread (Count)
system.cpu.statIssuedInstType_0::FloatSqrt            0      0.00%     63.94% # Number of instructions issued per FU type, per thread (Count)
system.cpu.statIssuedInstType_0::SimdAdd        65585      0.04%     63.98% # Number of instructions issued per FU type, per thread (Count)
system.cpu.statIssuedInstType_0::SimdAddAcc            0      0.00%     63.98% # Number of instructions issued per FU type, per thread (Count)
system.cpu.statIssuedInstType_0::SimdAlu       131153      0.08%     64.06% # Number of instructions issued per FU type, per thread (Count)
system.cpu.statIssuedInstType_0::SimdCmp       131144      0.08%     64.14% # Number of instructions issued per FU type, per thread (Count)
system.cpu.statIssuedInstType_0::SimdCvt            0      0.00%     64.14% # Number of instructions issued per FU type, per thread (Count)
system.cpu.statIssuedInstType_0::SimdMisc       124573      0.07%     64.21% # Number of instructions issued per FU type, per thread (Count)
system.cpu.statIssuedInstType_0::SimdMult            0      0.00%     64.21% # Number of instructions issued per FU type, per thread (Count)
system.cpu.statIssuedInstType_0::SimdMultAcc            0      0.00%     64.21% # Number of instructions issued per FU type, per thread (Count)
system.cpu.statIssuedInstType_0::SimdShift            0      0.00%     64.21% # Number of instructions issued per FU type, per thread (Count)
system.cpu.statIssuedInstType_0::SimdShiftAcc            0      0.00%     64.21% # Number of instructions issued per FU type, per thread (Count)
system.cpu.statIssuedInstType_0::SimdDiv            0      0.00%     64.21% # Number of instructions issued per FU type, per thread (Count)
system.cpu.statIssuedInstType_0::SimdSqrt            0      0.00%     64.21% # Number of instructions issued per FU type, per thread (Count)
system.cpu.statIssuedInstType_0::SimdFloatAdd            0      0.00%     64.21% # Number of instructions issued per FU type, per thread (Count)
system.cpu.statIssuedInstType_0::SimdFloatAlu            0      0.00%     64.21% # Number of instructions issued per FU type, per thread (Count)
system.cpu.statIssuedInstType_0::SimdFloatCmp            0      0.00%     64.21% # Number of instructions issued per FU type, per thread (Count)
system.cpu.statIssuedInstType_0::SimdFloatCvt            0      0.00%     64.21% # Number of instructions issued per FU type, per thread (Count)
system.cpu.statIssuedInstType_0::SimdFloatDiv            0      0.00%     64.21% # Number of instructions issued per FU type, per thread (Count)
system.cpu.statIssuedInstType_0::SimdFloatMisc            0      0.00%     64.21% # Number of instructions issued per FU type, per thread (Count)
system.cpu.statIssuedInstType_0::SimdFloatMult            0      0.00%     64.21% # Number of instructions issued per FU type, per thread (Count)
system.cpu.statIssuedInstType_0::SimdFloatMultAcc            0      0.00%     64.21% # Number of instructions issued per FU type, per thread (Count)
system.cpu.statIssuedInstType_0::SimdFloatSqrt            0      0.00%     64.21% # Number of instructions issued per FU type, per thread (Count)
system.cpu.statIssuedInstType_0::SimdReduceAdd            0      0.00%     64.21% # Number of instructions issued per FU type, per thread (Count)
system.cpu.statIssuedInstType_0::SimdReduceAlu            0      0.00%     64.21% # Number of instructions issued per FU type, per thread (Count)
system.cpu.statIssuedInstType_0::SimdReduceCmp            0      0.00%     64.21% # Number of instructions issued per FU type, per thread (Count)
system.cpu.statIssuedInstType_0::SimdFloatReduceAdd            0      0.00%     64.21% # Number of instructions issued per FU type, per thread (Count)
system.cpu.statIssuedInstType_0::SimdFloatReduceCmp            0      0.00%     64.21% # Number of instructions issued per FU type, per thread (Count)
system.cpu.statIssuedInstType_0::SimdAes            0      0.00%     64.21% # Number of instructions issued per FU type, per thread (Count)
system.cpu.statIssuedInstType_0::SimdAesMix            0      0.00%     64.21% # Number of instructions issued per FU type, per thread (Count)
system.cpu.statIssuedInstType_0::SimdSha1Hash            0      0.00%     64.21% # Number of instructions issued per FU type, per thread (Count)
system.cpu.statIssuedInstType_0::SimdSha1Hash2            0      0.00%     64.21% # Number of instructions issued per FU type, per thread (Count)
system.cpu.statIssuedInstType_0::SimdSha256Hash            0      0.00%     64.21% # Number of instructions issued per FU type, per thread (Count)
system.cpu.statIssuedInstType_0::SimdSha256Hash2            0      0.00%     64.21% # Number of instructions issued per FU type, per thread (Count)
system.cpu.statIssuedInstType_0::SimdShaSigma2            0      0.00%     64.21% # Number of instructions issued per FU type, per thread (Count)
system.cpu.statIssuedInstType_0::SimdShaSigma3            0      0.00%     64.21% # Number of instructions issued per FU type, per thread (Count)
system.cpu.statIssuedInstType_0::SimdPredAlu            0      0.00%     64.21% # Number of instructions issued per FU type, per thread (Count)
system.cpu.statIssuedInstType_0::MemRead     40700344     23.91%     88.12% # Number of instructions issued per FU type, per thread (Count)
system.cpu.statIssuedInstType_0::MemWrite     20224430     11.88%    100.00% # Number of instructions issued per FU type, per thread (Count)
system.cpu.statIssuedInstType_0::FloatMemRead            0      0.00%    100.00% # Number of instructions issued per FU type, per thread (Count)
system.cpu.statIssuedInstType_0::FloatMemWrite            0      0.00%    100.00% # Number of instructions issued per FU type, per thread (Count)
system.cpu.statIssuedInstType_0::IprAccess            0      0.00%    100.00% # Number of instructions issued per FU type, per thread (Count)
system.cpu.statIssuedInstType_0::InstPrefetch            0      0.00%    100.00% # Number of instructions issued per FU type, per thread (Count)
system.cpu.statIssuedInstType_0::total      170228352                       # Number of instructions issued per FU type, per thread (Count)
system.cpu.issueRate                         1.315729                       # Inst issue rate ((Count/Cycle))
system.cpu.fuBusy                             3266969                       # FU busy when requested (Count)
system.cpu.fuBusyRate                        0.019192                       # FU busy rate (busy events/executed inst) ((Count/Count))
system.cpu.intInstQueueReads                440775493                       # Number of integer instruction queue reads (Count)
system.cpu.intInstQueueWrites               167854930                       # Number of integer instruction queue writes (Count)
system.cpu.intInstQueueWakeupAccesses       151919067                       # Number of integer instruction queue wakeup accesses (Count)
system.cpu.fpInstQueueReads                         0                       # Number of floating instruction queue reads (Count)
system.cpu.fpInstQueueWrites                        0                       # Number of floating instruction queue writes (Count)
system.cpu.fpInstQueueWakeupAccesses                0                       # Number of floating instruction queue wakeup accesses (Count)
system.cpu.vecInstQueueReads                 30229439                       # Number of vector instruction queue reads (Count)
system.cpu.vecInstQueueWrites                16168191                       # Number of vector instruction queue writes (Count)
system.cpu.vecInstQueueWakeupAccesses        14568965                       # Number of vector instruction queue wakeup accesses (Count)
system.cpu.intAluAccesses                   158193708                       # Number of integer alu accesses (Count)
system.cpu.fpAluAccesses                            0                       # Number of floating point alu accesses (Count)
system.cpu.vecAluAccesses                    15170459                       # Number of vector alu accesses (Count)
system.cpu.numInsts                         169306369                       # Number of executed instructions (Count)
system.cpu.numLoadInsts                      40404180                       # Number of load instructions executed (Count)
system.cpu.numSquashedInsts                    921983                       # Number of squashed instructions skipped in execute (Count)
system.cpu.numSwp                                   0                       # Number of swp insts executed (Count)
system.cpu.numNop                              132159                       # Number of nop insts executed (Count)
system.cpu.numRefs                           60385220                       # Number of memory reference insts executed (Count)
system.cpu.numBranches                       23370845                       # Number of branches executed (Count)
system.cpu.numStoreInsts                     19981040                       # Number of stores executed (Count)
system.cpu.numRate                           1.308603                       # Inst execution rate ((Count/Cycle))
system.cpu.timesIdled                          134894                       # Number of times that the entire CPU went into an idle state and unscheduled itself (Count)
system.cpu.idleCycles                         2405543                       # Total number of cycles that the CPU has spent unscheduled due to idling (Cycle)
system.cpu.committedInsts                   146952332                       # Number of Instructions Simulated (Count)
system.cpu.committedOps                     158847536                       # Number of Ops (including micro ops) Simulated (Count)
system.cpu.cpi                               0.880418                       # CPI: Cycles Per Instruction ((Cycle/Count))
system.cpu.totalCpi                          0.880418                       # CPI: Total CPI of All Threads ((Cycle/Count))
system.cpu.ipc                               1.135824                       # IPC: Instructions Per Cycle ((Count/Cycle))
system.cpu.totalIpc                          1.135824                       # IPC: Total IPC of All Threads ((Count/Cycle))
system.cpu.intRegfileReads                  194953295                       # Number of integer regfile reads (Count)
system.cpu.intRegfileWrites                 116844399                       # Number of integer regfile writes (Count)
system.cpu.vecRegfileReads                   12572488                       # number of vector regfile reads (Count)
system.cpu.vecRegfileWrites                  11208747                       # number of vector regfile writes (Count)
system.cpu.ccRegfileReads                    40627467                       # number of cc regfile reads (Count)
system.cpu.ccRegfileWrites                   40245377                       # number of cc regfile writes (Count)
system.cpu.miscRegfileReads                 353411693                       # number of misc regfile reads (Count)
system.cpu.miscRegfileWrites                  4446766                       # number of misc regfile writes (Count)
system.cpu.MemDepUnit__0.insertedLoads       38865984                       # Number of loads inserted to the mem dependence unit. (Count)
system.cpu.MemDepUnit__0.insertedStores      21108940                       # Number of stores inserted to the mem dependence unit. (Count)
system.cpu.MemDepUnit__0.conflictingLoads     11335324                       # Number of conflicting loads. (Count)
system.cpu.MemDepUnit__0.conflictingStores      4490154                       # Number of conflicting stores. (Count)
system.cpu.MemDepUnit__1.insertedLoads              0                       # Number of loads inserted to the mem dependence unit. (Count)
system.cpu.MemDepUnit__1.insertedStores             0                       # Number of stores inserted to the mem dependence unit. (Count)
system.cpu.MemDepUnit__1.conflictingLoads            0                       # Number of conflicting loads. (Count)
system.cpu.MemDepUnit__1.conflictingStores            0                       # Number of conflicting stores. (Count)
system.cpu.MemDepUnit__2.insertedLoads              0                       # Number of loads inserted to the mem dependence unit. (Count)
system.cpu.MemDepUnit__2.insertedStores             0                       # Number of stores inserted to the mem dependence unit. (Count)
system.cpu.MemDepUnit__2.conflictingLoads            0                       # Number of conflicting loads. (Count)
system.cpu.MemDepUnit__2.conflictingStores            0                       # Number of conflicting stores. (Count)
system.cpu.MemDepUnit__3.insertedLoads              0                       # Number of loads inserted to the mem dependence unit. (Count)
system.cpu.MemDepUnit__3.insertedStores             0                       # Number of stores inserted to the mem dependence unit. (Count)
system.cpu.MemDepUnit__3.conflictingLoads            0                       # Number of conflicting loads. (Count)
system.cpu.MemDepUnit__3.conflictingStores            0                       # Number of conflicting stores. (Count)
system.cpu.branchPred.lookups                25290861                       # Number of BP lookups (Count)
system.cpu.branchPred.condPredicted          17603185                       # Number of conditional branches predicted (Count)
system.cpu.branchPred.condIncorrect            306211                       # Number of conditional branches incorrect (Count)
system.cpu.branchPred.BTBLookups             12626548                       # Number of BTB lookups (Count)
system.cpu.branchPred.BTBHits                12526960                       # Number of BTB hits (Count)
system.cpu.branchPred.BTBHitRatio            0.992113                       # BTB Hit Ratio (Ratio)
system.cpu.branchPred.RASUsed                 1490818                       # Number of times the RAS was used to get a target. (Count)
system.cpu.branchPred.RASIncorrect                 36                       # Number of incorrect RAS predictions. (Count)
system.cpu.branchPred.indirectLookups          269165                       # Number of indirect predictor lookups. (Count)
system.cpu.branchPred.indirectHits             267436                       # Number of indirect target hits. (Count)
system.cpu.branchPred.indirectMisses             1729                       # Number of indirect misses. (Count)
system.cpu.branchPred.indirectMispredicted          198                       # Number of mispredicted indirect branches. (Count)
system.cpu.commit.commitSquashedInsts        12565906                       # The number of squashed insts skipped by commit (Count)
system.cpu.commit.commitNonSpecStalls          196817                       # The number of times commit has been forced to stall to communicate backwards (Count)
system.cpu.commit.branchMispredicts            279217                       # The number of times a branch was mispredicted (Count)
system.cpu.commit.numCommittedDist::samples    125233754                       # Number of insts commited each cycle (Count)
system.cpu.commit.numCommittedDist::mean     1.269343                       # Number of insts commited each cycle (Count)
system.cpu.commit.numCommittedDist::stdev     2.525167                       # Number of insts commited each cycle (Count)
system.cpu.commit.numCommittedDist::underflows            0      0.00%      0.00% # Number of insts commited each cycle (Count)
system.cpu.commit.numCommittedDist::0        86248547     68.87%     68.87% # Number of insts commited each cycle (Count)
system.cpu.commit.numCommittedDist::1        12579660     10.04%     78.91% # Number of insts commited each cycle (Count)
system.cpu.commit.numCommittedDist::2         6545145      5.23%     84.14% # Number of insts commited each cycle (Count)
system.cpu.commit.numCommittedDist::3         2617028      2.09%     86.23% # Number of insts commited each cycle (Count)
system.cpu.commit.numCommittedDist::4         1057247      0.84%     87.08% # Number of insts commited each cycle (Count)
system.cpu.commit.numCommittedDist::5          693841      0.55%     87.63% # Number of insts commited each cycle (Count)
system.cpu.commit.numCommittedDist::6         2571212      2.05%     89.68% # Number of insts commited each cycle (Count)
system.cpu.commit.numCommittedDist::7         1050557      0.84%     90.52% # Number of insts commited each cycle (Count)
system.cpu.commit.numCommittedDist::8        11870517      9.48%    100.00% # Number of insts commited each cycle (Count)
system.cpu.commit.numCommittedDist::overflows            0      0.00%    100.00% # Number of insts commited each cycle (Count)
system.cpu.commit.numCommittedDist::min_value            0                       # Number of insts commited each cycle (Count)
system.cpu.commit.numCommittedDist::max_value            8                       # Number of insts commited each cycle (Count)
system.cpu.commit.numCommittedDist::total    125233754                       # Number of insts commited each cycle (Count)
system.cpu.commit.instsCommitted            147069330                       # Number of instructions committed (Count)
system.cpu.commit.opsCommitted              158964534                       # Number of ops (including micro ops) committed (Count)
system.cpu.commit.memRefs                    55035983                       # Number of memory references committed (Count)
system.cpu.commit.loads                      36602870                       # Number of loads committed (Count)
system.cpu.commit.amos                          98358                       # Number of atomic instructions committed (Count)
system.cpu.commit.membars                       98368                       # Number of memory barriers committed (Count)
system.cpu.commit.branches                   22379733                       # Number of branches committed (Count)
system.cpu.commit.vectorInstructions         14159255                       # Number of committed Vector instructions. (Count)
system.cpu.commit.floating                          0                       # Number of committed floating point instructions. (Count)
system.cpu.commit.integer                   139349800                       # Number of committed integer instructions. (Count)
system.cpu.commit.functionCalls               1352391                       # Number of function calls committed. (Count)
system.cpu.commit.committedInstType_0::No_OpClass       131141      0.08%      0.08% # Class of committed instruction (Count)
system.cpu.commit.committedInstType_0::IntAlu     97057513     61.06%     61.14% # Class of committed instruction (Count)
system.cpu.commit.committedInstType_0::IntMult      1655054      1.04%     62.18% # Class of committed instruction (Count)
system.cpu.commit.committedInstType_0::IntDiv       330123      0.21%     62.39% # Class of committed instruction (Count)
system.cpu.commit.committedInstType_0::FloatAdd      2103705      1.32%     63.71% # Class of committed instruction (Count)
system.cpu.commit.committedInstType_0::FloatCmp        32768      0.02%     63.73% # Class of committed instruction (Count)
system.cpu.commit.committedInstType_0::FloatCvt            0      0.00%     63.73% # Class of committed instruction (Count)
system.cpu.commit.committedInstType_0::FloatMult      2097152      1.32%     65.05% # Class of committed instruction (Count)
system.cpu.commit.committedInstType_0::FloatMultAcc            0      0.00%     65.05% # Class of committed instruction (Count)
system.cpu.commit.committedInstType_0::FloatDiv            0      0.00%     65.05% # Class of committed instruction (Count)
system.cpu.commit.committedInstType_0::FloatMisc        68812      0.04%     65.09% # Class of committed instruction (Count)
system.cpu.commit.committedInstType_0::FloatSqrt            0      0.00%     65.09% # Class of committed instruction (Count)
system.cpu.commit.committedInstType_0::SimdAdd        65556      0.04%     65.14% # Class of committed instruction (Count)
system.cpu.commit.committedInstType_0::SimdAddAcc            0      0.00%     65.14% # Class of committed instruction (Count)
system.cpu.commit.committedInstType_0::SimdAlu       131098      0.08%     65.22% # Class of committed instruction (Count)
system.cpu.commit.committedInstType_0::SimdCmp       131092      0.08%     65.30% # Class of committed instruction (Count)
system.cpu.commit.committedInstType_0::SimdCvt            0      0.00%     65.30% # Class of committed instruction (Count)
system.cpu.commit.committedInstType_0::SimdMisc       124537      0.08%     65.38% # Class of committed instruction (Count)
system.cpu.commit.committedInstType_0::SimdMult            0      0.00%     65.38% # Class of committed instruction (Count)
system.cpu.commit.committedInstType_0::SimdMultAcc            0      0.00%     65.38% # Class of committed instruction (Count)
system.cpu.commit.committedInstType_0::SimdShift            0      0.00%     65.38% # Class of committed instruction (Count)
system.cpu.commit.committedInstType_0::SimdShiftAcc            0      0.00%     65.38% # Class of committed instruction (Count)
system.cpu.commit.committedInstType_0::SimdDiv            0      0.00%     65.38% # Class of committed instruction (Count)
system.cpu.commit.committedInstType_0::SimdSqrt            0      0.00%     65.38% # Class of committed instruction (Count)
system.cpu.commit.committedInstType_0::SimdFloatAdd            0      0.00%     65.38% # Class of committed instruction (Count)
system.cpu.commit.committedInstType_0::SimdFloatAlu            0      0.00%     65.38% # Class of committed instruction (Count)
system.cpu.commit.committedInstType_0::SimdFloatCmp            0      0.00%     65.38% # Class of committed instruction (Count)
system.cpu.commit.committedInstType_0::SimdFloatCvt            0      0.00%     65.38% # Class of committed instruction (Count)
system.cpu.commit.committedInstType_0::SimdFloatDiv            0      0.00%     65.38% # Class of committed instruction (Count)
system.cpu.commit.committedInstType_0::SimdFloatMisc            0      0.00%     65.38% # Class of committed instruction (Count)
system.cpu.commit.committedInstType_0::SimdFloatMult            0      0.00%     65.38% # Class of committed instruction (Count)
system.cpu.commit.committedInstType_0::SimdFloatMultAcc            0      0.00%     65.38% # Class of committed instruction (Count)
system.cpu.commit.committedInstType_0::SimdFloatSqrt            0      0.00%     65.38% # Class of committed instruction (Count)
system.cpu.commit.committedInstType_0::SimdReduceAdd            0      0.00%     65.38% # Class of committed instruction (Count)
system.cpu.commit.committedInstType_0::SimdReduceAlu            0      0.00%     65.38% # Class of committed instruction (Count)
system.cpu.commit.committedInstType_0::SimdReduceCmp            0      0.00%     65.38% # Class of committed instruction (Count)
system.cpu.commit.committedInstType_0::SimdFloatReduceAdd            0      0.00%     65.38% # Class of committed instruction (Count)
system.cpu.commit.committedInstType_0::SimdFloatReduceCmp            0      0.00%     65.38% # Class of committed instruction (Count)
system.cpu.commit.committedInstType_0::SimdAes            0      0.00%     65.38% # Class of committed instruction (Count)
system.cpu.commit.committedInstType_0::SimdAesMix            0      0.00%     65.38% # Class of committed instruction (Count)
system.cpu.commit.committedInstType_0::SimdSha1Hash            0      0.00%     65.38% # Class of committed instruction (Count)
system.cpu.commit.committedInstType_0::SimdSha1Hash2            0      0.00%     65.38% # Class of committed instruction (Count)
system.cpu.commit.committedInstType_0::SimdSha256Hash            0      0.00%     65.38% # Class of committed instruction (Count)
system.cpu.commit.committedInstType_0::SimdSha256Hash2            0      0.00%     65.38% # Class of committed instruction (Count)
system.cpu.commit.committedInstType_0::SimdShaSigma2            0      0.00%     65.38% # Class of committed instruction (Count)
system.cpu.commit.committedInstType_0::SimdShaSigma3            0      0.00%     65.38% # Class of committed instruction (Count)
system.cpu.commit.committedInstType_0::SimdPredAlu            0      0.00%     65.38% # Class of committed instruction (Count)
system.cpu.commit.committedInstType_0::MemRead     36602870     23.03%     88.40% # Class of committed instruction (Count)
system.cpu.commit.committedInstType_0::MemWrite     18433113     11.60%    100.00% # Class of committed instruction (Count)
system.cpu.commit.committedInstType_0::FloatMemRead            0      0.00%    100.00% # Class of committed instruction (Count)
system.cpu.commit.committedInstType_0::FloatMemWrite            0      0.00%    100.00% # Class of committed instruction (Count)
system.cpu.commit.committedInstType_0::IprAccess            0      0.00%    100.00% # Class of committed instruction (Count)
system.cpu.commit.committedInstType_0::InstPrefetch            0      0.00%    100.00% # Class of committed instruction (Count)
system.cpu.commit.committedInstType_0::total    158964534                       # Class of committed instruction (Count)
system.cpu.commit.commitEligibleSamples      11870517                       # number cycles where commit BW limit reached (Cycle)
system.cpu.dcache.demandHits::cpu.data       41144706                       # number of demand (read+write) hits (Count)
system.cpu.dcache.demandHits::total          41144706                       # number of demand (read+write) hits (Count)
system.cpu.dcache.overallHits::cpu.data      41247192                       # number of overall hits (Count)
system.cpu.dcache.overallHits::total         41247192                       # number of overall hits (Count)
system.cpu.dcache.demandMisses::cpu.data      2348091                       # number of demand (read+write) misses (Count)
system.cpu.dcache.demandMisses::total         2348091                       # number of demand (read+write) misses (Count)
system.cpu.dcache.overallMisses::cpu.data      2348151                       # number of overall misses (Count)
system.cpu.dcache.overallMisses::total        2348151                       # number of overall misses (Count)
system.cpu.dcache.demandMissLatency::cpu.data 132996023589                       # number of demand (read+write) miss ticks (Tick)
system.cpu.dcache.demandMissLatency::total 132996023589                       # number of demand (read+write) miss ticks (Tick)
system.cpu.dcache.overallMissLatency::cpu.data 132996023589                       # number of overall miss ticks (Tick)
system.cpu.dcache.overallMissLatency::total 132996023589                       # number of overall miss ticks (Tick)
system.cpu.dcache.demandAccesses::cpu.data     43492797                       # number of demand (read+write) accesses (Count)
system.cpu.dcache.demandAccesses::total      43492797                       # number of demand (read+write) accesses (Count)
system.cpu.dcache.overallAccesses::cpu.data     43595343                       # number of overall (read+write) accesses (Count)
system.cpu.dcache.overallAccesses::total     43595343                       # number of overall (read+write) accesses (Count)
system.cpu.dcache.demandMissRate::cpu.data     0.053988                       # miss rate for demand accesses (Ratio)
system.cpu.dcache.demandMissRate::total      0.053988                       # miss rate for demand accesses (Ratio)
system.cpu.dcache.overallMissRate::cpu.data     0.053862                       # miss rate for overall accesses (Ratio)
system.cpu.dcache.overallMissRate::total     0.053862                       # miss rate for overall accesses (Ratio)
system.cpu.dcache.demandAvgMissLatency::cpu.data 56640.063604                       # average overall miss latency ((Cycle/Count))
system.cpu.dcache.demandAvgMissLatency::total 56640.063604                       # average overall miss latency ((Cycle/Count))
system.cpu.dcache.overallAvgMissLatency::cpu.data 56638.616336                       # average overall miss latency ((Cycle/Count))
system.cpu.dcache.overallAvgMissLatency::total 56638.616336                       # average overall miss latency ((Cycle/Count))
system.cpu.dcache.blockedCycles::no_mshrs     40185122                       # number of cycles access was blocked (Cycle)
system.cpu.dcache.blockedCycles::no_targets            0                       # number of cycles access was blocked (Cycle)
system.cpu.dcache.blockedCauses::no_mshrs       818247                       # number of times access was blocked (Count)
system.cpu.dcache.blockedCauses::no_targets            0                       # number of times access was blocked (Count)
system.cpu.dcache.avgBlocked::no_mshrs      49.111237                       # average number of cycles each access was blocked ((Cycle/Count))
system.cpu.dcache.avgBlocked::no_targets          nan                       # average number of cycles each access was blocked ((Cycle/Count))
system.cpu.dcache.writebacks::writebacks        45476                       # number of writebacks (Count)
system.cpu.dcache.writebacks::total             45476                       # number of writebacks (Count)
system.cpu.dcache.demandMshrHits::cpu.data       134072                       # number of demand (read+write) MSHR hits (Count)
system.cpu.dcache.demandMshrHits::total        134072                       # number of demand (read+write) MSHR hits (Count)
system.cpu.dcache.overallMshrHits::cpu.data       134072                       # number of overall MSHR hits (Count)
system.cpu.dcache.overallMshrHits::total       134072                       # number of overall MSHR hits (Count)
system.cpu.dcache.demandMshrMisses::cpu.data      2214019                       # number of demand (read+write) MSHR misses (Count)
system.cpu.dcache.demandMshrMisses::total      2214019                       # number of demand (read+write) MSHR misses (Count)
system.cpu.dcache.overallMshrMisses::cpu.data      2214079                       # number of overall MSHR misses (Count)
system.cpu.dcache.overallMshrMisses::total      2214079                       # number of overall MSHR misses (Count)
system.cpu.dcache.demandMshrMissLatency::cpu.data 126466115137                       # number of demand (read+write) MSHR miss ticks (Tick)
system.cpu.dcache.demandMshrMissLatency::total 126466115137                       # number of demand (read+write) MSHR miss ticks (Tick)
system.cpu.dcache.overallMshrMissLatency::cpu.data 126469357637                       # number of overall MSHR miss ticks (Tick)
system.cpu.dcache.overallMshrMissLatency::total 126469357637                       # number of overall MSHR miss ticks (Tick)
system.cpu.dcache.demandMshrMissRate::cpu.data     0.050905                       # mshr miss ratio for demand accesses (Ratio)
system.cpu.dcache.demandMshrMissRate::total     0.050905                       # mshr miss ratio for demand accesses (Ratio)
system.cpu.dcache.overallMshrMissRate::cpu.data     0.050787                       # mshr miss ratio for overall accesses (Ratio)
system.cpu.dcache.overallMshrMissRate::total     0.050787                       # mshr miss ratio for overall accesses (Ratio)
system.cpu.dcache.demandAvgMshrMissLatency::cpu.data 57120.609686                       # average overall mshr miss latency ((Cycle/Count))
system.cpu.dcache.demandAvgMshrMissLatency::total 57120.609686                       # average overall mshr miss latency ((Cycle/Count))
system.cpu.dcache.overallAvgMshrMissLatency::cpu.data 57120.526249                       # average overall mshr miss latency ((Cycle/Count))
system.cpu.dcache.overallAvgMshrMissLatency::total 57120.526249                       # average overall mshr miss latency ((Cycle/Count))
system.cpu.dcache.replacements                2213571                       # number of replacements (Count)
system.cpu.dcache.LoadLockedReq.hits::cpu.data           32                       # number of LoadLockedReq hits (Count)
system.cpu.dcache.LoadLockedReq.hits::total           32                       # number of LoadLockedReq hits (Count)
system.cpu.dcache.LoadLockedReq.misses::cpu.data            6                       # number of LoadLockedReq misses (Count)
system.cpu.dcache.LoadLockedReq.misses::total            6                       # number of LoadLockedReq misses (Count)
system.cpu.dcache.LoadLockedReq.missLatency::cpu.data       450500                       # number of LoadLockedReq miss ticks (Tick)
system.cpu.dcache.LoadLockedReq.missLatency::total       450500                       # number of LoadLockedReq miss ticks (Tick)
system.cpu.dcache.LoadLockedReq.accesses::cpu.data           38                       # number of LoadLockedReq accesses(hits+misses) (Count)
system.cpu.dcache.LoadLockedReq.accesses::total           38                       # number of LoadLockedReq accesses(hits+misses) (Count)
system.cpu.dcache.LoadLockedReq.missRate::cpu.data     0.157895                       # miss rate for LoadLockedReq accesses (Ratio)
system.cpu.dcache.LoadLockedReq.missRate::total     0.157895                       # miss rate for LoadLockedReq accesses (Ratio)
system.cpu.dcache.LoadLockedReq.avgMissLatency::cpu.data 75083.333333                       # average LoadLockedReq miss latency ((Tick/Count))
system.cpu.dcache.LoadLockedReq.avgMissLatency::total 75083.333333                       # average LoadLockedReq miss latency ((Tick/Count))
system.cpu.dcache.LoadLockedReq.mshrHits::cpu.data            2                       # number of LoadLockedReq MSHR hits (Count)
system.cpu.dcache.LoadLockedReq.mshrHits::total            2                       # number of LoadLockedReq MSHR hits (Count)
system.cpu.dcache.LoadLockedReq.mshrMisses::cpu.data            4                       # number of LoadLockedReq MSHR misses (Count)
system.cpu.dcache.LoadLockedReq.mshrMisses::total            4                       # number of LoadLockedReq MSHR misses (Count)
system.cpu.dcache.LoadLockedReq.mshrMissLatency::cpu.data       303500                       # number of LoadLockedReq MSHR miss ticks (Tick)
system.cpu.dcache.LoadLockedReq.mshrMissLatency::total       303500                       # number of LoadLockedReq MSHR miss ticks (Tick)
system.cpu.dcache.LoadLockedReq.mshrMissRate::cpu.data     0.105263                       # mshr miss rate for LoadLockedReq accesses (Ratio)
system.cpu.dcache.LoadLockedReq.mshrMissRate::total     0.105263                       # mshr miss rate for LoadLockedReq accesses (Ratio)
system.cpu.dcache.LoadLockedReq.avgMshrMissLatency::cpu.data        75875                       # average LoadLockedReq mshr miss latency ((Tick/Count))
system.cpu.dcache.LoadLockedReq.avgMshrMissLatency::total        75875                       # average LoadLockedReq mshr miss latency ((Tick/Count))
system.cpu.dcache.ReadReq.hits::cpu.data     22901046                       # number of ReadReq hits (Count)
system.cpu.dcache.ReadReq.hits::total        22901046                       # number of ReadReq hits (Count)
system.cpu.dcache.ReadReq.misses::cpu.data      2256998                       # number of ReadReq misses (Count)
system.cpu.dcache.ReadReq.misses::total       2256998                       # number of ReadReq misses (Count)
system.cpu.dcache.ReadReq.missLatency::cpu.data 130432952000                       # number of ReadReq miss ticks (Tick)
system.cpu.dcache.ReadReq.missLatency::total 130432952000                       # number of ReadReq miss ticks (Tick)
system.cpu.dcache.ReadReq.accesses::cpu.data     25158044                       # number of ReadReq accesses(hits+misses) (Count)
system.cpu.dcache.ReadReq.accesses::total     25158044                       # number of ReadReq accesses(hits+misses) (Count)
system.cpu.dcache.ReadReq.missRate::cpu.data     0.089713                       # miss rate for ReadReq accesses (Ratio)
system.cpu.dcache.ReadReq.missRate::total     0.089713                       # miss rate for ReadReq accesses (Ratio)
system.cpu.dcache.ReadReq.avgMissLatency::cpu.data 57790.459717                       # average ReadReq miss latency ((Tick/Count))
system.cpu.dcache.ReadReq.avgMissLatency::total 57790.459717                       # average ReadReq miss latency ((Tick/Count))
system.cpu.dcache.ReadReq.mshrHits::cpu.data        88542                       # number of ReadReq MSHR hits (Count)
system.cpu.dcache.ReadReq.mshrHits::total        88542                       # number of ReadReq MSHR hits (Count)
system.cpu.dcache.ReadReq.mshrMisses::cpu.data      2168456                       # number of ReadReq MSHR misses (Count)
system.cpu.dcache.ReadReq.mshrMisses::total      2168456                       # number of ReadReq MSHR misses (Count)
system.cpu.dcache.ReadReq.mshrMissLatency::cpu.data 125187755500                       # number of ReadReq MSHR miss ticks (Tick)
system.cpu.dcache.ReadReq.mshrMissLatency::total 125187755500                       # number of ReadReq MSHR miss ticks (Tick)
system.cpu.dcache.ReadReq.mshrMissRate::cpu.data     0.086193                       # mshr miss rate for ReadReq accesses (Ratio)
system.cpu.dcache.ReadReq.mshrMissRate::total     0.086193                       # mshr miss rate for ReadReq accesses (Ratio)
system.cpu.dcache.ReadReq.avgMshrMissLatency::cpu.data 57731.286916                       # average ReadReq mshr miss latency ((Tick/Count))
system.cpu.dcache.ReadReq.avgMshrMissLatency::total 57731.286916                       # average ReadReq mshr miss latency ((Tick/Count))
system.cpu.dcache.SoftPFReq.hits::cpu.data       102486                       # number of SoftPFReq hits (Count)
system.cpu.dcache.SoftPFReq.hits::total        102486                       # number of SoftPFReq hits (Count)
system.cpu.dcache.SoftPFReq.misses::cpu.data           60                       # number of SoftPFReq misses (Count)
system.cpu.dcache.SoftPFReq.misses::total           60                       # number of SoftPFReq misses (Count)
system.cpu.dcache.SoftPFReq.accesses::cpu.data       102546                       # number of SoftPFReq accesses(hits+misses) (Count)
system.cpu.dcache.SoftPFReq.accesses::total       102546                       # number of SoftPFReq accesses(hits+misses) (Count)
system.cpu.dcache.SoftPFReq.missRate::cpu.data     0.000585                       # miss rate for SoftPFReq accesses (Ratio)
system.cpu.dcache.SoftPFReq.missRate::total     0.000585                       # miss rate for SoftPFReq accesses (Ratio)
system.cpu.dcache.SoftPFReq.mshrMisses::cpu.data           60                       # number of SoftPFReq MSHR misses (Count)
system.cpu.dcache.SoftPFReq.mshrMisses::total           60                       # number of SoftPFReq MSHR misses (Count)
system.cpu.dcache.SoftPFReq.mshrMissLatency::cpu.data      3242500                       # number of SoftPFReq MSHR miss ticks (Tick)
system.cpu.dcache.SoftPFReq.mshrMissLatency::total      3242500                       # number of SoftPFReq MSHR miss ticks (Tick)
system.cpu.dcache.SoftPFReq.mshrMissRate::cpu.data     0.000585                       # mshr miss rate for SoftPFReq accesses (Ratio)
system.cpu.dcache.SoftPFReq.mshrMissRate::total     0.000585                       # mshr miss rate for SoftPFReq accesses (Ratio)
system.cpu.dcache.SoftPFReq.avgMshrMissLatency::cpu.data 54041.666667                       # average SoftPFReq mshr miss latency ((Tick/Count))
system.cpu.dcache.SoftPFReq.avgMshrMissLatency::total 54041.666667                       # average SoftPFReq mshr miss latency ((Tick/Count))
system.cpu.dcache.StoreCondReq.hits::cpu.data           10                       # number of StoreCondReq hits (Count)
system.cpu.dcache.StoreCondReq.hits::total           10                       # number of StoreCondReq hits (Count)
system.cpu.dcache.StoreCondReq.accesses::cpu.data           10                       # number of StoreCondReq accesses(hits+misses) (Count)
system.cpu.dcache.StoreCondReq.accesses::total           10                       # number of StoreCondReq accesses(hits+misses) (Count)
system.cpu.dcache.SwapReq.hits::cpu.data        98357                       # number of SwapReq hits (Count)
system.cpu.dcache.SwapReq.hits::total           98357                       # number of SwapReq hits (Count)
system.cpu.dcache.SwapReq.misses::cpu.data            1                       # number of SwapReq misses (Count)
system.cpu.dcache.SwapReq.misses::total             1                       # number of SwapReq misses (Count)
system.cpu.dcache.SwapReq.missLatency::cpu.data        72000                       # number of SwapReq miss ticks (Tick)
system.cpu.dcache.SwapReq.missLatency::total        72000                       # number of SwapReq miss ticks (Tick)
system.cpu.dcache.SwapReq.accesses::cpu.data        98358                       # number of SwapReq accesses(hits+misses) (Count)
system.cpu.dcache.SwapReq.accesses::total        98358                       # number of SwapReq accesses(hits+misses) (Count)
system.cpu.dcache.SwapReq.missRate::cpu.data     0.000010                       # miss rate for SwapReq accesses (Ratio)
system.cpu.dcache.SwapReq.missRate::total     0.000010                       # miss rate for SwapReq accesses (Ratio)
system.cpu.dcache.SwapReq.avgMissLatency::cpu.data        72000                       # average SwapReq miss latency ((Tick/Count))
system.cpu.dcache.SwapReq.avgMissLatency::total        72000                       # average SwapReq miss latency ((Tick/Count))
system.cpu.dcache.SwapReq.mshrHits::cpu.data            1                       # number of SwapReq MSHR hits (Count)
system.cpu.dcache.SwapReq.mshrHits::total            1                       # number of SwapReq MSHR hits (Count)
system.cpu.dcache.WriteLineReq.misses::cpu.data            9                       # number of WriteLineReq misses (Count)
system.cpu.dcache.WriteLineReq.misses::total            9                       # number of WriteLineReq misses (Count)
system.cpu.dcache.WriteLineReq.missLatency::cpu.data        96998                       # number of WriteLineReq miss ticks (Tick)
system.cpu.dcache.WriteLineReq.missLatency::total        96998                       # number of WriteLineReq miss ticks (Tick)
system.cpu.dcache.WriteLineReq.accesses::cpu.data            9                       # number of WriteLineReq accesses(hits+misses) (Count)
system.cpu.dcache.WriteLineReq.accesses::total            9                       # number of WriteLineReq accesses(hits+misses) (Count)
system.cpu.dcache.WriteLineReq.missRate::cpu.data            1                       # miss rate for WriteLineReq accesses (Ratio)
system.cpu.dcache.WriteLineReq.missRate::total            1                       # miss rate for WriteLineReq accesses (Ratio)
system.cpu.dcache.WriteLineReq.avgMissLatency::cpu.data 10777.555556                       # average WriteLineReq miss latency ((Tick/Count))
system.cpu.dcache.WriteLineReq.avgMissLatency::total 10777.555556                       # average WriteLineReq miss latency ((Tick/Count))
system.cpu.dcache.WriteLineReq.mshrMisses::cpu.data            9                       # number of WriteLineReq MSHR misses (Count)
system.cpu.dcache.WriteLineReq.mshrMisses::total            9                       # number of WriteLineReq MSHR misses (Count)
system.cpu.dcache.WriteLineReq.mshrMissLatency::cpu.data        87998                       # number of WriteLineReq MSHR miss ticks (Tick)
system.cpu.dcache.WriteLineReq.mshrMissLatency::total        87998                       # number of WriteLineReq MSHR miss ticks (Tick)
system.cpu.dcache.WriteLineReq.mshrMissRate::cpu.data            1                       # mshr miss rate for WriteLineReq accesses (Ratio)
system.cpu.dcache.WriteLineReq.mshrMissRate::total            1                       # mshr miss rate for WriteLineReq accesses (Ratio)
system.cpu.dcache.WriteLineReq.avgMshrMissLatency::cpu.data  9777.555556                       # average WriteLineReq mshr miss latency ((Tick/Count))
system.cpu.dcache.WriteLineReq.avgMshrMissLatency::total  9777.555556                       # average WriteLineReq mshr miss latency ((Tick/Count))
system.cpu.dcache.WriteReq.hits::cpu.data     18243660                       # number of WriteReq hits (Count)
system.cpu.dcache.WriteReq.hits::total       18243660                       # number of WriteReq hits (Count)
system.cpu.dcache.WriteReq.misses::cpu.data        91084                       # number of WriteReq misses (Count)
system.cpu.dcache.WriteReq.misses::total        91084                       # number of WriteReq misses (Count)
system.cpu.dcache.WriteReq.missLatency::cpu.data   2562974591                       # number of WriteReq miss ticks (Tick)
system.cpu.dcache.WriteReq.missLatency::total   2562974591                       # number of WriteReq miss ticks (Tick)
system.cpu.dcache.WriteReq.accesses::cpu.data     18334744                       # number of WriteReq accesses(hits+misses) (Count)
system.cpu.dcache.WriteReq.accesses::total     18334744                       # number of WriteReq accesses(hits+misses) (Count)
system.cpu.dcache.WriteReq.missRate::cpu.data     0.004968                       # miss rate for WriteReq accesses (Ratio)
system.cpu.dcache.WriteReq.missRate::total     0.004968                       # miss rate for WriteReq accesses (Ratio)
system.cpu.dcache.WriteReq.avgMissLatency::cpu.data 28138.581869                       # average WriteReq miss latency ((Tick/Count))
system.cpu.dcache.WriteReq.avgMissLatency::total 28138.581869                       # average WriteReq miss latency ((Tick/Count))
system.cpu.dcache.WriteReq.mshrHits::cpu.data        45530                       # number of WriteReq MSHR hits (Count)
system.cpu.dcache.WriteReq.mshrHits::total        45530                       # number of WriteReq MSHR hits (Count)
system.cpu.dcache.WriteReq.mshrMisses::cpu.data        45554                       # number of WriteReq MSHR misses (Count)
system.cpu.dcache.WriteReq.mshrMisses::total        45554                       # number of WriteReq MSHR misses (Count)
system.cpu.dcache.WriteReq.mshrMissLatency::cpu.data   1278271639                       # number of WriteReq MSHR miss ticks (Tick)
system.cpu.dcache.WriteReq.mshrMissLatency::total   1278271639                       # number of WriteReq MSHR miss ticks (Tick)
system.cpu.dcache.WriteReq.mshrMissRate::cpu.data     0.002485                       # mshr miss rate for WriteReq accesses (Ratio)
system.cpu.dcache.WriteReq.mshrMissRate::total     0.002485                       # mshr miss rate for WriteReq accesses (Ratio)
system.cpu.dcache.WriteReq.avgMshrMissLatency::cpu.data 28060.579510                       # average WriteReq mshr miss latency ((Tick/Count))
system.cpu.dcache.WriteReq.avgMshrMissLatency::total 28060.579510                       # average WriteReq mshr miss latency ((Tick/Count))
system.cpu.dcache.power_state.pwrStateResidencyTicks::UNDEFINED  64689761500                       # Cumulative time (in ticks) in various power states (Tick)
system.cpu.dcache.tags.tagsInUse           511.296124                       # Average ticks per tags in use ((Tick/Count))
system.cpu.dcache.tags.totalRefs             43559674                       # Total number of references to valid blocks. (Count)
system.cpu.dcache.tags.sampledRefs            2214083                       # Sample count of references to valid blocks. (Count)
system.cpu.dcache.tags.avgRefs              19.673912                       # Average number of references to valid blocks. ((Count/Count))
system.cpu.dcache.tags.warmupTick              145000                       # The tick when the warmup percentage was hit. (Tick)
system.cpu.dcache.tags.occupancies::cpu.data   511.296124                       # Average occupied blocks per tick, per requestor ((Count/Tick))
system.cpu.dcache.tags.avgOccs::cpu.data     0.998625                       # Average percentage of cache occupancy ((Ratio/Tick))
system.cpu.dcache.tags.avgOccs::total        0.998625                       # Average percentage of cache occupancy ((Ratio/Tick))
system.cpu.dcache.tags.occupanciesTaskId::1024          512                       # Occupied blocks per task id (Count)
system.cpu.dcache.tags.ageTaskId_1024::0           67                       # Occupied blocks per task id, per block age (Count)
system.cpu.dcache.tags.ageTaskId_1024::1            9                       # Occupied blocks per task id, per block age (Count)
system.cpu.dcache.tags.ageTaskId_1024::2          100                       # Occupied blocks per task id, per block age (Count)
system.cpu.dcache.tags.ageTaskId_1024::3          179                       # Occupied blocks per task id, per block age (Count)
system.cpu.dcache.tags.ageTaskId_1024::4          157                       # Occupied blocks per task id, per block age (Count)
system.cpu.dcache.tags.ratioOccsTaskId::1024            1                       # Ratio of occupied blocks and all blocks, per task id (Ratio)
system.cpu.dcache.tags.tagAccesses           89601581                       # Number of tag accesses (Count)
system.cpu.dcache.tags.dataAccesses          89601581                       # Number of data accesses (Count)
system.cpu.dcache.tags.power_state.pwrStateResidencyTicks::UNDEFINED  64689761500                       # Cumulative time (in ticks) in various power states (Tick)
system.cpu.decode.idleCycles                 18575287                       # Number of cycles decode is idle (Cycle)
system.cpu.decode.blockedCycles              79482093                       # Number of cycles decode is blocked (Cycle)
system.cpu.decode.runCycles                  21318889                       # Number of cycles decode is running (Cycle)
system.cpu.decode.unblockCycles               7229825                       # Number of cycles decode is unblocking (Cycle)
system.cpu.decode.squashCycles                 367887                       # Number of cycles decode is squashing (Cycle)
system.cpu.decode.branchResolved             12296494                       # Number of times decode resolved a branch (Count)
system.cpu.decode.branchMispred                 27005                       # Number of times decode detected a branch misprediction (Count)
system.cpu.decode.decodedInsts              174880500                       # Number of instructions handled by decode (Count)
system.cpu.decode.squashedInsts                132935                       # Number of squashed instructions handled by decode (Count)
system.cpu.fetch.icacheStallCycles           27194083                       # Number of cycles fetch is stalled on an Icache miss (Cycle)
system.cpu.fetch.insts                      164579469                       # Number of instructions fetch has processed (Count)
system.cpu.fetch.branches                    25290861                       # Number of branches that fetch encountered (Count)
system.cpu.fetch.predictedBranches           14285214                       # Number of branches that fetch has predicted taken (Count)
system.cpu.fetch.cycles                      99384875                       # Number of cycles fetch has run and was not squashing or blocked (Cycle)
system.cpu.fetch.squashCycles                  789762                       # Number of cycles fetch has spent squashing (Cycle)
system.cpu.fetch.miscStallCycles                    9                       # Number of cycles fetch has spent waiting on interrupts, or bad addresses, or out of MSHRs (Cycle)
system.cpu.fetch.icacheWaitRetryStallCycles          133                       # Number of stall cycles due to full MSHR (Cycle)
system.cpu.fetch.cacheLines                  23029181                       # Number of cache lines fetched (Count)
system.cpu.fetch.icacheSquashes                128479                       # Number of outstanding Icache misses that were squashed (Count)
system.cpu.fetch.nisnDist::samples          126973981                       # Number of instructions fetched each cycle (Total) (Count)
system.cpu.fetch.nisnDist::mean              1.417082                       # Number of instructions fetched each cycle (Total) (Count)
system.cpu.fetch.nisnDist::stdev             2.688122                       # Number of instructions fetched each cycle (Total) (Count)
system.cpu.fetch.nisnDist::underflows               0      0.00%      0.00% # Number of instructions fetched each cycle (Total) (Count)
system.cpu.fetch.nisnDist::0                 90601480     71.35%     71.35% # Number of instructions fetched each cycle (Total) (Count)
system.cpu.fetch.nisnDist::1                  6846028      5.39%     76.75% # Number of instructions fetched each cycle (Total) (Count)
system.cpu.fetch.nisnDist::2                  4040398      3.18%     79.93% # Number of instructions fetched each cycle (Total) (Count)
system.cpu.fetch.nisnDist::3                  2374484      1.87%     81.80% # Number of instructions fetched each cycle (Total) (Count)
system.cpu.fetch.nisnDist::4                  2754577      2.17%     83.97% # Number of instructions fetched each cycle (Total) (Count)
system.cpu.fetch.nisnDist::5                  2398792      1.89%     85.86% # Number of instructions fetched each cycle (Total) (Count)
system.cpu.fetch.nisnDist::6                  3341274      2.63%     88.49% # Number of instructions fetched each cycle (Total) (Count)
system.cpu.fetch.nisnDist::7                  2113255      1.66%     90.15% # Number of instructions fetched each cycle (Total) (Count)
system.cpu.fetch.nisnDist::8                 12503693      9.85%    100.00% # Number of instructions fetched each cycle (Total) (Count)
system.cpu.fetch.nisnDist::overflows                0      0.00%    100.00% # Number of instructions fetched each cycle (Total) (Count)
system.cpu.fetch.nisnDist::min_value                0                       # Number of instructions fetched each cycle (Total) (Count)
system.cpu.fetch.nisnDist::max_value                8                       # Number of instructions fetched each cycle (Total) (Count)
system.cpu.fetch.nisnDist::total            126973981                       # Number of instructions fetched each cycle (Total) (Count)
system.cpu.fetch.branchRate                  0.195478                       # Number of branch fetches per cycle (Ratio)
system.cpu.fetch.rate                        1.272067                       # Number of inst fetches per cycle ((Count/Cycle))
system.cpu.icache.demandHits::cpu.inst       22882219                       # number of demand (read+write) hits (Count)
system.cpu.icache.demandHits::total          22882219                       # number of demand (read+write) hits (Count)
system.cpu.icache.overallHits::cpu.inst      22882219                       # number of overall hits (Count)
system.cpu.icache.overallHits::total         22882219                       # number of overall hits (Count)
system.cpu.icache.demandMisses::cpu.inst       146962                       # number of demand (read+write) misses (Count)
system.cpu.icache.demandMisses::total          146962                       # number of demand (read+write) misses (Count)
system.cpu.icache.overallMisses::cpu.inst       146962                       # number of overall misses (Count)
system.cpu.icache.overallMisses::total         146962                       # number of overall misses (Count)
system.cpu.icache.demandMissLatency::cpu.inst   3415719497                       # number of demand (read+write) miss ticks (Tick)
system.cpu.icache.demandMissLatency::total   3415719497                       # number of demand (read+write) miss ticks (Tick)
system.cpu.icache.overallMissLatency::cpu.inst   3415719497                       # number of overall miss ticks (Tick)
system.cpu.icache.overallMissLatency::total   3415719497                       # number of overall miss ticks (Tick)
system.cpu.icache.demandAccesses::cpu.inst     23029181                       # number of demand (read+write) accesses (Count)
system.cpu.icache.demandAccesses::total      23029181                       # number of demand (read+write) accesses (Count)
system.cpu.icache.overallAccesses::cpu.inst     23029181                       # number of overall (read+write) accesses (Count)
system.cpu.icache.overallAccesses::total     23029181                       # number of overall (read+write) accesses (Count)
system.cpu.icache.demandMissRate::cpu.inst     0.006382                       # miss rate for demand accesses (Ratio)
system.cpu.icache.demandMissRate::total      0.006382                       # miss rate for demand accesses (Ratio)
system.cpu.icache.overallMissRate::cpu.inst     0.006382                       # miss rate for overall accesses (Ratio)
system.cpu.icache.overallMissRate::total     0.006382                       # miss rate for overall accesses (Ratio)
system.cpu.icache.demandAvgMissLatency::cpu.inst 23242.195241                       # average overall miss latency ((Cycle/Count))
system.cpu.icache.demandAvgMissLatency::total 23242.195241                       # average overall miss latency ((Cycle/Count))
system.cpu.icache.overallAvgMissLatency::cpu.inst 23242.195241                       # average overall miss latency ((Cycle/Count))
system.cpu.icache.overallAvgMissLatency::total 23242.195241                       # average overall miss latency ((Cycle/Count))
system.cpu.icache.blockedCycles::no_mshrs         1511                       # number of cycles access was blocked (Cycle)
system.cpu.icache.blockedCycles::no_targets            0                       # number of cycles access was blocked (Cycle)
system.cpu.icache.blockedCauses::no_mshrs           24                       # number of times access was blocked (Count)
system.cpu.icache.blockedCauses::no_targets            0                       # number of times access was blocked (Count)
system.cpu.icache.avgBlocked::no_mshrs      62.958333                       # average number of cycles each access was blocked ((Cycle/Count))
system.cpu.icache.avgBlocked::no_targets          nan                       # average number of cycles each access was blocked ((Cycle/Count))
system.cpu.icache.writebacks::writebacks       144539                       # number of writebacks (Count)
system.cpu.icache.writebacks::total            144539                       # number of writebacks (Count)
system.cpu.icache.demandMshrHits::cpu.inst         1923                       # number of demand (read+write) MSHR hits (Count)
system.cpu.icache.demandMshrHits::total          1923                       # number of demand (read+write) MSHR hits (Count)
system.cpu.icache.overallMshrHits::cpu.inst         1923                       # number of overall MSHR hits (Count)
system.cpu.icache.overallMshrHits::total         1923                       # number of overall MSHR hits (Count)
system.cpu.icache.demandMshrMisses::cpu.inst       145039                       # number of demand (read+write) MSHR misses (Count)
system.cpu.icache.demandMshrMisses::total       145039                       # number of demand (read+write) MSHR misses (Count)
system.cpu.icache.overallMshrMisses::cpu.inst       145039                       # number of overall MSHR misses (Count)
system.cpu.icache.overallMshrMisses::total       145039                       # number of overall MSHR misses (Count)
system.cpu.icache.demandMshrMissLatency::cpu.inst   3243852998                       # number of demand (read+write) MSHR miss ticks (Tick)
system.cpu.icache.demandMshrMissLatency::total   3243852998                       # number of demand (read+write) MSHR miss ticks (Tick)
system.cpu.icache.overallMshrMissLatency::cpu.inst   3243852998                       # number of overall MSHR miss ticks (Tick)
system.cpu.icache.overallMshrMissLatency::total   3243852998                       # number of overall MSHR miss ticks (Tick)
system.cpu.icache.demandMshrMissRate::cpu.inst     0.006298                       # mshr miss ratio for demand accesses (Ratio)
system.cpu.icache.demandMshrMissRate::total     0.006298                       # mshr miss ratio for demand accesses (Ratio)
system.cpu.icache.overallMshrMissRate::cpu.inst     0.006298                       # mshr miss ratio for overall accesses (Ratio)
system.cpu.icache.overallMshrMissRate::total     0.006298                       # mshr miss ratio for overall accesses (Ratio)
system.cpu.icache.demandAvgMshrMissLatency::cpu.inst 22365.384469                       # average overall mshr miss latency ((Cycle/Count))
system.cpu.icache.demandAvgMshrMissLatency::total 22365.384469                       # average overall mshr miss latency ((Cycle/Count))
system.cpu.icache.overallAvgMshrMissLatency::cpu.inst 22365.384469                       # average overall mshr miss latency ((Cycle/Count))
system.cpu.icache.overallAvgMshrMissLatency::total 22365.384469                       # average overall mshr miss latency ((Cycle/Count))
system.cpu.icache.replacements                 144539                       # number of replacements (Count)
system.cpu.icache.ReadReq.hits::cpu.inst     22882219                       # number of ReadReq hits (Count)
system.cpu.icache.ReadReq.hits::total        22882219                       # number of ReadReq hits (Count)
system.cpu.icache.ReadReq.misses::cpu.inst       146962                       # number of ReadReq misses (Count)
system.cpu.icache.ReadReq.misses::total        146962                       # number of ReadReq misses (Count)
system.cpu.icache.ReadReq.missLatency::cpu.inst   3415719497                       # number of ReadReq miss ticks (Tick)
system.cpu.icache.ReadReq.missLatency::total   3415719497                       # number of ReadReq miss ticks (Tick)
system.cpu.icache.ReadReq.accesses::cpu.inst     23029181                       # number of ReadReq accesses(hits+misses) (Count)
system.cpu.icache.ReadReq.accesses::total     23029181                       # number of ReadReq accesses(hits+misses) (Count)
system.cpu.icache.ReadReq.missRate::cpu.inst     0.006382                       # miss rate for ReadReq accesses (Ratio)
system.cpu.icache.ReadReq.missRate::total     0.006382                       # miss rate for ReadReq accesses (Ratio)
system.cpu.icache.ReadReq.avgMissLatency::cpu.inst 23242.195241                       # average ReadReq miss latency ((Tick/Count))
system.cpu.icache.ReadReq.avgMissLatency::total 23242.195241                       # average ReadReq miss latency ((Tick/Count))
system.cpu.icache.ReadReq.mshrHits::cpu.inst         1923                       # number of ReadReq MSHR hits (Count)
system.cpu.icache.ReadReq.mshrHits::total         1923                       # number of ReadReq MSHR hits (Count)
system.cpu.icache.ReadReq.mshrMisses::cpu.inst       145039                       # number of ReadReq MSHR misses (Count)
system.cpu.icache.ReadReq.mshrMisses::total       145039                       # number of ReadReq MSHR misses (Count)
system.cpu.icache.ReadReq.mshrMissLatency::cpu.inst   3243852998                       # number of ReadReq MSHR miss ticks (Tick)
system.cpu.icache.ReadReq.mshrMissLatency::total   3243852998                       # number of ReadReq MSHR miss ticks (Tick)
system.cpu.icache.ReadReq.mshrMissRate::cpu.inst     0.006298                       # mshr miss rate for ReadReq accesses (Ratio)
system.cpu.icache.ReadReq.mshrMissRate::total     0.006298                       # mshr miss rate for ReadReq accesses (Ratio)
system.cpu.icache.ReadReq.avgMshrMissLatency::cpu.inst 22365.384469                       # average ReadReq mshr miss latency ((Tick/Count))
system.cpu.icache.ReadReq.avgMshrMissLatency::total 22365.384469                       # average ReadReq mshr miss latency ((Tick/Count))
system.cpu.icache.power_state.pwrStateResidencyTicks::UNDEFINED  64689761500                       # Cumulative time (in ticks) in various power states (Tick)
system.cpu.icache.tags.tagsInUse           493.240477                       # Average ticks per tags in use ((Tick/Count))
system.cpu.icache.tags.totalRefs             23027257                       # Total number of references to valid blocks. (Count)
system.cpu.icache.tags.sampledRefs             145038                       # Sample count of references to valid blocks. (Count)
system.cpu.icache.tags.avgRefs             158.767061                       # Average number of references to valid blocks. ((Count/Count))
system.cpu.icache.tags.warmupTick               77000                       # The tick when the warmup percentage was hit. (Tick)
system.cpu.icache.tags.occupancies::cpu.inst   493.240477                       # Average occupied blocks per tick, per requestor ((Count/Tick))
system.cpu.icache.tags.avgOccs::cpu.inst     0.963360                       # Average percentage of cache occupancy ((Ratio/Tick))
system.cpu.icache.tags.avgOccs::total        0.963360                       # Average percentage of cache occupancy ((Ratio/Tick))
system.cpu.icache.tags.occupanciesTaskId::1024          499                       # Occupied blocks per task id (Count)
system.cpu.icache.tags.ageTaskId_1024::0           98                       # Occupied blocks per task id, per block age (Count)
system.cpu.icache.tags.ageTaskId_1024::3            9                       # Occupied blocks per task id, per block age (Count)
system.cpu.icache.tags.ageTaskId_1024::4          392                       # Occupied blocks per task id, per block age (Count)
system.cpu.icache.tags.ratioOccsTaskId::1024     0.974609                       # Ratio of occupied blocks and all blocks, per task id (Ratio)
system.cpu.icache.tags.tagAccesses           46203400                       # Number of tag accesses (Count)
system.cpu.icache.tags.dataAccesses          46203400                       # Number of data accesses (Count)
system.cpu.icache.tags.power_state.pwrStateResidencyTicks::UNDEFINED  64689761500                       # Cumulative time (in ticks) in various power states (Tick)
system.cpu.iew.idleCycles                           0                       # Number of cycles IEW is idle (Cycle)
system.cpu.iew.squashCycles                    367887                       # Number of cycles IEW is squashing (Cycle)
system.cpu.iew.blockCycles                    4633963                       # Number of cycles IEW is blocking (Cycle)
system.cpu.iew.unblockCycles                  5368354                       # Number of cycles IEW is unblocking (Cycle)
[...]
system.mem_ctrls.dram.bwRead::cpu.inst      143491517                       # Total read bandwidth from this memory ((Byte/Second))
system.mem_ctrls.dram.bwRead::cpu.data     2190452348                       # Total read bandwidth from this memory ((Byte/Second))
system.mem_ctrls.dram.bwRead::total        2333943865                       # Total read bandwidth from this memory ((Byte/Second))
system.mem_ctrls.dram.bwInstRead::cpu.inst    143491517                       # Instruction read bandwidth from this memory ((Byte/Second))
system.mem_ctrls.dram.bwInstRead::total     143491517                       # Instruction read bandwidth from this memory ((Byte/Second))
system.mem_ctrls.dram.bwWrite::writebacks     44991107                       # Write bandwidth from this memory ((Byte/Second))
system.mem_ctrls.dram.bwWrite::total         44991107                       # Write bandwidth from this memory ((Byte/Second))
system.mem_ctrls.dram.bwTotal::writebacks     44991107                       # Total bandwidth to/from this memory ((Byte/Second))
system.mem_ctrls.dram.bwTotal::cpu.inst     143491517                       # Total bandwidth to/from this memory ((Byte/Second))
system.mem_ctrls.dram.bwTotal::cpu.data    2190452348                       # Total bandwidth to/from this memory ((Byte/Second))
system.mem_ctrls.dram.bwTotal::total       2378934973                       # Total bandwidth to/from this memory ((Byte/Second))
system.mem_ctrls.dram.readBursts              2175281                       # Number of DRAM read bursts (Count)
system.mem_ctrls.dram.writeBursts                8869                       # Number of DRAM write bursts (Count)
system.mem_ctrls.dram.perBankRdBursts::0       133071                       # Per bank write bursts (Count)
system.mem_ctrls.dram.perBankRdBursts::1       133082                       # Per bank write bursts (Count)
system.mem_ctrls.dram.perBankRdBursts::2       133172                       # Per bank write bursts (Count)
system.mem_ctrls.dram.perBankRdBursts::3       133080                       # Per bank write bursts (Count)
system.mem_ctrls.dram.perBankRdBursts::4       149424                       # Per bank write bursts (Count)
system.mem_ctrls.dram.perBankRdBursts::5       133298                       # Per bank write bursts (Count)
system.mem_ctrls.dram.perBankRdBursts::6       132853                       # Per bank write bursts (Count)
system.mem_ctrls.dram.perBankRdBursts::7       132869                       # Per bank write bursts (Count)
system.mem_ctrls.dram.perBankRdBursts::8       149210                       # Per bank write bursts (Count)
system.mem_ctrls.dram.perBankRdBursts::9       133037                       # Per bank write bursts (Count)
system.mem_ctrls.dram.perBankRdBursts::10       140066                       # Per bank write bursts (Count)
system.mem_ctrls.dram.perBankRdBursts::11       133047                       # Per bank write bursts (Count)
system.mem_ctrls.dram.perBankRdBursts::12       140224                       # Per bank write bursts (Count)
system.mem_ctrls.dram.perBankRdBursts::13       132934                       # Per bank write bursts (Count)
system.mem_ctrls.dram.perBankRdBursts::14       132994                       # Per bank write bursts (Count)
system.mem_ctrls.dram.perBankRdBursts::15       132920                       # Per bank write bursts (Count)
system.mem_ctrls.dram.perBankWrBursts::0          477                       # Per bank write bursts (Count)
system.mem_ctrls.dram.perBankWrBursts::1          599                       # Per bank write bursts (Count)
system.mem_ctrls.dram.perBankWrBursts::2          553                       # Per bank write bursts (Count)
system.mem_ctrls.dram.perBankWrBursts::3          574                       # Per bank write bursts (Count)
system.mem_ctrls.dram.perBankWrBursts::4          518                       # Per bank write bursts (Count)
system.mem_ctrls.dram.perBankWrBursts::5          599                       # Per bank write bursts (Count)
system.mem_ctrls.dram.perBankWrBursts::6          622                       # Per bank write bursts (Count)
system.mem_ctrls.dram.perBankWrBursts::7          525                       # Per bank write bursts (Count)
system.mem_ctrls.dram.perBankWrBursts::8          724                       # Per bank write bursts (Count)
system.mem_ctrls.dram.perBankWrBursts::9          601                       # Per bank write bursts (Count)
system.mem_ctrls.dram.perBankWrBursts::10          415                       # Per bank write bursts (Count)
system.mem_ctrls.dram.perBankWrBursts::11          607                       # Per bank write bursts (Count)
system.mem_ctrls.dram.perBankWrBursts::12          468                       # Per bank write bursts (Count)
system.mem_ctrls.dram.perBankWrBursts::13          619                       # Per bank write bursts (Count)
system.mem_ctrls.dram.perBankWrBursts::14          445                       # Per bank write bursts (Count)
system.mem_ctrls.dram.perBankWrBursts::15          523                       # Per bank write bursts (Count)
system.mem_ctrls.dram.totQLat             15774911500                       # Total ticks spent queuing (Tick)
system.mem_ctrls.dram.totBusLat           10876405000                       # Total ticks spent in databus transfers (Tick)
system.mem_ctrls.dram.totMemAccLat        56561430250                       # Total ticks spent from burst creation until serviced by the DRAM (Tick)
system.mem_ctrls.dram.avgQLat                 7251.90                       # Average queueing delay per DRAM burst ((Tick/Count))
system.mem_ctrls.dram.avgBusLat               5000.00                       # Average bus latency per DRAM burst ((Tick/Count))
system.mem_ctrls.dram.avgMemAccLat           26001.90                       # Average memory access latency per DRAM burst ((Tick/Count))
system.mem_ctrls.dram.readRowHits             1962339                       # Number of row buffer hits during reads (Count)
system.mem_ctrls.dram.writeRowHits               7168                       # Number of row buffer hits during writes (Count)
system.mem_ctrls.dram.readRowHitRate            90.21                       # Row buffer hit rate for reads (Ratio)
system.mem_ctrls.dram.writeRowHitRate           80.82                       # Row buffer hit rate for writes (Ratio)
system.mem_ctrls.dram.bytesPerActivate::samples       214632                       # Bytes accessed per row activation (Byte)
system.mem_ctrls.dram.bytesPerActivate::mean   651.274069                       # Bytes accessed per row activation (Byte)
system.mem_ctrls.dram.bytesPerActivate::gmean   494.934597                       # Bytes accessed per row activation (Byte)
system.mem_ctrls.dram.bytesPerActivate::stdev   364.975037                       # Bytes accessed per row activation (Byte)
system.mem_ctrls.dram.bytesPerActivate::0-127        20980      9.77%      9.77% # Bytes accessed per row activation (Byte)
system.mem_ctrls.dram.bytesPerActivate::128-255        20658      9.62%     19.40% # Bytes accessed per row activation (Byte)
system.mem_ctrls.dram.bytesPerActivate::256-383        18525      8.63%     28.03% # Bytes accessed per row activation (Byte)
system.mem_ctrls.dram.bytesPerActivate::384-511         6619      3.08%     31.11% # Bytes accessed per row activation (Byte)
system.mem_ctrls.dram.bytesPerActivate::512-639        46827     21.82%     52.93% # Bytes accessed per row activation (Byte)
system.mem_ctrls.dram.bytesPerActivate::640-767         2043      0.95%     53.88% # Bytes accessed per row activation (Byte)
system.mem_ctrls.dram.bytesPerActivate::768-895         2124      0.99%     54.87% # Bytes accessed per row activation (Byte)
system.mem_ctrls.dram.bytesPerActivate::896-1023         2033      0.95%     55.82% # Bytes accessed per row activation (Byte)
system.mem_ctrls.dram.bytesPerActivate::1024-1151        94823     44.18%    100.00% # Bytes accessed per row activation (Byte)
system.mem_ctrls.dram.bytesPerActivate::total       214632                       # Bytes accessed per row activation (Byte)
system.mem_ctrls.dram.bytesRead             139217984                       # Total bytes read (Byte)
system.mem_ctrls.dram.bytesWritten             567616                       # Total bytes written (Byte)
system.mem_ctrls.dram.avgRdBW             2152.086834                       # Average DRAM read bandwidth in MiBytes/s ((Byte/Second))
system.mem_ctrls.dram.avgWrBW                8.774433                       # Average DRAM write bandwidth in MiBytes/s ((Byte/Second))
system.mem_ctrls.dram.peakBW                 12800.00                       # Theoretical peak bandwidth in MiByte/s ((Byte/Second))
system.mem_ctrls.dram.busUtil                   16.88                       # Data bus utilization in percentage (Ratio)
system.mem_ctrls.dram.busUtilRead               16.81                       # Data bus utilization in percentage for reads (Ratio)
system.mem_ctrls.dram.busUtilWrite               0.07                       # Data bus utilization in percentage for writes (Ratio)
system.mem_ctrls.dram.pageHitRate               90.17                       # Row buffer hit rate, read and write combined (Ratio)
system.mem_ctrls.dram.power_state.pwrStateResidencyTicks::UNDEFINED  64689761500                       # Cumulative time (in ticks) in various power states (Tick)
system.mem_ctrls.dram.rank0.actEnergy       837600540                       # Energy for activate commands per rank (pJ) (Joule)
system.mem_ctrls.dram.rank0.preEnergy       445168680                       # Energy for precharge commands per rank (pJ) (Joule)
system.mem_ctrls.dram.rank0.readEnergy     7717254720                       # Energy for read commands per rank (pJ) (Joule)
system.mem_ctrls.dram.rank0.writeEnergy      23317740                       # Energy for write commands per rank (pJ) (Joule)
system.mem_ctrls.dram.rank0.refreshEnergy 5106429120.000001                       # Energy for refresh commands per rank (pJ) (Joule)
system.mem_ctrls.dram.rank0.actBackEnergy  26461155600                       # Energy for active background per rank (pJ) (Joule)
system.mem_ctrls.dram.rank0.preBackEnergy   2557790400                       # Energy for precharge background per rank (pJ) (Joule)
system.mem_ctrls.dram.rank0.actPowerDownEnergy            0                       # Energy for active power-down per rank (pJ) (Joule)
system.mem_ctrls.dram.rank0.prePowerDownEnergy            0                       # Energy for precharge power-down per rank (pJ) (Joule)
system.mem_ctrls.dram.rank0.selfRefreshEnergy            0                       # Energy for self refresh per rank (pJ) (Joule)
system.mem_ctrls.dram.rank0.totalEnergy   43148716800                       # Total energy per rank (pJ) (Joule)
system.mem_ctrls.dram.rank0.averagePower   667.009984                       # Core power per rank (mW) (Watt)
system.mem_ctrls.dram.rank0.totalIdleTime            0                       # Total Idle time Per DRAM Rank (Tick)
system.mem_ctrls.dram.rank0.pwrStateTime::IDLE   6420002500                       # Time in different power states (Tick)
system.mem_ctrls.dram.rank0.pwrStateTime::REF   2160080000                       # Time in different power states (Tick)
system.mem_ctrls.dram.rank0.pwrStateTime::SREF            0                       # Time in different power states (Tick)
system.mem_ctrls.dram.rank0.pwrStateTime::PRE_PDN            0                       # Time in different power states (Tick)
system.mem_ctrls.dram.rank0.pwrStateTime::ACT  56109679000                       # Time in different power states (Tick)
system.mem_ctrls.dram.rank0.pwrStateTime::ACT_PDN            0                       # Time in different power states (Tick)
system.mem_ctrls.dram.rank1.actEnergy       694943340                       # Energy for activate commands per rank (pJ) (Joule)
system.mem_ctrls.dram.rank1.preEnergy       369359760                       # Energy for precharge commands per rank (pJ) (Joule)
system.mem_ctrls.dram.rank1.readEnergy     7814244480                       # Energy for read commands per rank (pJ) (Joule)
system.mem_ctrls.dram.rank1.writeEnergy      22978440                       # Energy for write commands per rank (pJ) (Joule)
system.mem_ctrls.dram.rank1.refreshEnergy 5106429120.000001                       # Energy for refresh commands per rank (pJ) (Joule)
system.mem_ctrls.dram.rank1.actBackEnergy  27477291180                       # Energy for active background per rank (pJ) (Joule)
system.mem_ctrls.dram.rank1.preBackEnergy   1702097280                       # Energy for precharge background per rank (pJ) (Joule)
system.mem_ctrls.dram.rank1.actPowerDownEnergy            0                       # Energy for active power-down per rank (pJ) (Joule)
system.mem_ctrls.dram.rank1.prePowerDownEnergy            0                       # Energy for precharge power-down per rank (pJ) (Joule)
system.mem_ctrls.dram.rank1.selfRefreshEnergy            0                       # Energy for self refresh per rank (pJ) (Joule)
system.mem_ctrls.dram.rank1.totalEnergy   43187343600                       # Total energy per rank (pJ) (Joule)
system.mem_ctrls.dram.rank1.averagePower   667.607093                       # Core power per rank (mW) (Watt)
system.mem_ctrls.dram.rank1.totalIdleTime            0                       # Total Idle time Per DRAM Rank (Tick)
system.mem_ctrls.dram.rank1.pwrStateTime::IDLE   4145921750                       # Time in different power states (Tick)
system.mem_ctrls.dram.rank1.pwrStateTime::REF   2160080000                       # Time in different power states (Tick)
system.mem_ctrls.dram.rank1.pwrStateTime::SREF            0                       # Time in different power states (Tick)
system.mem_ctrls.dram.rank1.pwrStateTime::PRE_PDN            0                       # Time in different power states (Tick)
system.mem_ctrls.dram.rank1.pwrStateTime::ACT  58383759750                       # Time in different power states (Tick)
system.mem_ctrls.dram.rank1.pwrStateTime::ACT_PDN            0                       # Time in different power states (Tick)
system.mem_ctrls.power_state.pwrStateResidencyTicks::UNDEFINED  64689761500                       # Cumulative time (in ticks) in various power states (Tick)
system.membus.transDist::ReadResp             2313558                       # Transaction distribution (Count)
system.membus.transDist::WritebackDirty         45476                       # Transaction distribution (Count)
system.membus.transDist::WritebackClean        144539                       # Transaction distribution (Count)
system.membus.transDist::CleanEvict           2168095                       # Transaction distribution (Count)
system.membus.transDist::ReadExReq              45540                       # Transaction distribution (Count)
system.membus.transDist::ReadExResp             45540                       # Transaction distribution (Count)
system.membus.transDist::ReadCleanReq          145039                       # Transaction distribution (Count)
system.membus.transDist::ReadSharedReq        2168520                       # Transaction distribution (Count)
system.membus.transDist::InvalidateReq             23                       # Transaction distribution (Count)
system.membus.pktCount_system.cpu.icache.mem_side_port::system.mem_ctrls.port       434616                       # Packet count per connected requestor and responder (Count)
system.membus.pktCount_system.cpu.dcache.mem_side_port::system.mem_ctrls.port      6641714                       # Packet count per connected requestor and responder (Count)
system.membus.pktCount::total                 7076330                       # Packet count per connected requestor and responder (Count)
system.membus.pktSize_system.cpu.icache.mem_side_port::system.mem_ctrls.port     18532928                       # Cumulative packet size per connected requestor and responder (Byte)
system.membus.pktSize_system.cpu.dcache.mem_side_port::system.mem_ctrls.port    144610304                       # Cumulative packet size per connected requestor and responder (Byte)
system.membus.pktSize::total                163143232                       # Cumulative packet size per connected requestor and responder (Byte)
system.membus.snoops                                0                       # Total snoops (Count)
system.membus.snoopTraffic                          0                       # Total snoop traffic (Byte)
system.membus.snoopFanout::samples            2359122                       # Request fanout histogram (Count)
system.membus.snoopFanout::mean              0.000001                       # Request fanout histogram (Count)
system.membus.snoopFanout::stdev             0.000921                       # Request fanout histogram (Count)
system.membus.snoopFanout::underflows               0      0.00%      0.00% # Request fanout histogram (Count)
system.membus.snoopFanout::0                  2359120    100.00%    100.00% # Request fanout histogram (Count)
system.membus.snoopFanout::1                        2      0.00%    100.00% # Request fanout histogram (Count)
system.membus.snoopFanout::2                        0      0.00%    100.00% # Request fanout histogram (Count)
system.membus.snoopFanout::overflows                0      0.00%    100.00% # Request fanout histogram (Count)
system.membus.snoopFanout::min_value                0                       # Request fanout histogram (Count)
system.membus.snoopFanout::max_value                1                       # Request fanout histogram (Count)
system.membus.snoopFanout::total              2359122                       # Request fanout histogram (Count)
system.membus.power_state.pwrStateResidencyTicks::UNDEFINED  64689761500                       # Cumulative time (in ticks) in various power states (Tick)
system.membus.reqLayer0.occupancy          6238216500                       # Layer occupancy (ticks) (Tick)
system.membus.reqLayer0.utilization               0.1                       # Layer utilization (Ratio)
system.membus.respLayer1.occupancy          725737750                       # Layer occupancy (ticks) (Tick)
system.membus.respLayer1.utilization              0.0                       # Layer utilization (Ratio)
system.membus.respLayer2.occupancy        11496264750                       # Layer occupancy (ticks) (Tick)
system.membus.respLayer2.utilization              0.2                       # Layer utilization (Ratio)
system.membus.snoop_filter.totRequests        4717232                       # Total number of requests made to the snoop filter. (Count)
system.membus.snoop_filter.hitSingleRequests      2358111                       # Number of requests hitting in the snoop filter with a single holder of the requested data. (Count)
system.membus.snoop_filter.hitMultiRequests            1                       # Number of requests hitting in the snoop filter with multiple (>1) holders of the requested data. (Count)
system.membus.snoop_filter.totSnoops                0                       # Total number of snoops made to the snoop filter. (Count)
system.membus.snoop_filter.hitSingleSnoops            0                       # Number of snoops hitting in the snoop filter with a single holder of the requested data. (Count)
system.membus.snoop_filter.hitMultiSnoops            0                       # Number of snoops hitting in the snoop filter with multiple (>1) holders of the requested data. (Count)
system.voltage_domain.voltage                       1                       # Voltage in Volts (Volt)
system.workload.inst.arm                            0                       # number of arm instructions executed (Count)
system.workload.inst.quiesce                        0                       # number of quiesce instructions executed (Count)

---------- End Simulation Statistics   ----------
