
---------- Begin Simulation Statistics ----------
simSeconds                                   0.053862                       # Number of seconds simulated (Second)
simTicks                                  53862344500                       # Number of ticks simulated (Tick)
finalTick                                 53862344500                       # Number of ticks from beginning of simulation (restored from checkpoints and never reset) (Tick)
simFreq                                  1000000000000                       # The number of ticks per simulated second ((Tick/Second))
hostSeconds                                    263.95                       # Real time elapsed on the host (Second)
hostTickRate                                204064037                       # The number of ticks simulated per host second (ticks/s) ((Tick/Second))
hostMemory                                     680484                       # Number of bytes of host memory used (Byte)
simInsts                                    122782581                       # Number of instructions simulated (Count)
simOps                                      130946100                       # Number of ops (including micro ops) simulated (Count)
hostInstRate                                   465176                       # Simulator instruction rate (inst/s) ((Count/Second))
hostOpRate                                     496105                       # Simulator op (including micro ops) rate (op/s) ((Count/Second))
system.clk_domain.clock                          1000                       # Clock period in ticks (Tick)
system.cpu.numCycles                        107724690                       # Number of cpu cycles simulated (Cycle)
system.cpu.numWorkItemsStarted                      0                       # Number of work items this cpu started (Count)
system.cpu.numWorkItemsCompleted                    0                       # Number of work items this cpu completed (Count)
system.cpu.instsAdded                       137676940                       # Number of instructions added to the IQ (excludes non-spec) (Count)
system.cpu.nonSpecInstsAdded                   196980                       # Number of non-speculative instructions added to the IQ (Count)
system.cpu.instsIssued                      137427852                       # Number of instructions issued (Count)
system.cpu.squashedInstsIssued                 243115                       # Number of squashed instructions issued (Count)
system.cpu.squashedInstsExamined              6927819                       # Number of squashed instructions iterated over during squash; mainly for profiling (Count)
system.cpu.squashedOperandsExamined           5350584                       # Number of squashed operands that are examined and possibly removed from graph (Count)
system.cpu.squashedNonSpecRemoved                 169                       # Number of squashed non-spec instructions that were removed (Count)
system.cpu.numIssuedDist::samples           107018070                       # Number of insts issued each cycle (Count)
system.cpu.numIssuedDist::mean               1.284156                       # Number of insts issued each cycle (Count)
system.cpu.numIssuedDist::stdev              1.802376                       # Number of insts issued each cycle (Count)
system.cpu.numIssuedDist::underflows                0      0.00%      0.00% # Number of insts issued each cycle (Count)
system.cpu.numIssuedDist::0                  55866729     52.20%     52.20% # Number of insts issued each cycle (Count)
system.cpu.numIssuedDist::1                  16755379     15.66%     67.86% # Number of insts issued each cycle (Count)
system.cpu.numIssuedDist::2                  11279173     10.54%     78.40% # Number of insts issued each cycle (Count)
system.cpu.numIssuedDist::3                   9243552      8.64%     87.04% # Number of insts issued each cycle (Count)
system.cpu.numIssuedDist::4                   6469502      6.05%     93.08% # Number of insts issued each cycle (Count)
system.cpu.numIssuedDist::5                   3065740      2.86%     95.95% # Number of insts issued each cycle (Count)
system.cpu.numIssuedDist::6                   2094974      1.96%     97.90% # Number of insts issued each cycle (Count)
system.cpu.numIssuedDist::7                   1337249      1.25%     99.15% # Number of insts issued each cycle (Count)
system.cpu.numIssuedDist::8                    905772      0.85%    100.00% # Number of insts issued each cycle (Count)
system.cpu.numIssuedDist::overflows                 0      0.00%    100.00% # Number of insts issued each cycle (Count)
system.cpu.numIssuedDist::min_value                 0                       # Number of insts issued each cycle (Count)
system.cpu.numIssuedDist::max_value                 8                       # Number of insts issued each cycle (Count)
system.cpu.numIssuedDist::total             107018070                       # Number of insts issued each cycle (Count)
system.cpu.statFuBusy::No_OpClass                   0      0.00%      0.00% # attempts to use FU when none available (Count)
system.cpu.statFuBusy::IntAlu                  308175     10.97%     10.97% # attempts to use FU when none available (Count)
system.cpu.statFuBusy::IntMult                 153902      5.48%     16.45% # attempts to use FU when none available (Count)
system.cpu.statFuBusy::IntDiv                       0      0.00%     16.45% # attempts to use FU when none available (Count)
system.cpu.statFuBusy::FloatAdd                     0      0.00%     16.45% # attempts to use FU when none available (Count)
system.cpu.statFuBusy::FloatCmp                     0      0.00%     16.45% # attempts to use FU when none available (Count)
system.cpu.statFuBusy::FloatCvt                     0      0.00%     16.45% # attempts to use FU when none available (Count)
system.cpu.statFuBusy::FloatMult                    0      0.00%     16.45% # attempts to use FU when none available (Count)
system.cpu.statFuBusy::FloatMultAcc                 0      0.00%     16.45% # attempts to use FU when none available (Count)
system.cpu.statFuBusy::FloatDiv                     0      0.00%     16.45% # attempts to use FU when none available (Count)
system.cpu.statFuBusy::FloatMisc                    0      0.00%     16.45% # attempts to use FU when none available (Count)
system.cpu.statFuBusy::FloatSqrt                    0      0.00%     16.45% # attempts to use FU when none available (Count)
system.cpu.statFuBusy::SimdAdd                      0      0.00%     16.45% # attempts to use FU when none available (Count)
system.cpu.statFuBusy::SimdAddAcc                   0      0.00%     16.45% # attempts to use FU when none available (Count)
system.cpu.statFuBusy::SimdAlu                      1      0.00%     16.45% # attempts to use FU when none available (Count)
system.cpu.statFuBusy::SimdCmp                      4      0.00%     16.45% # attempts to use FU when none available (Count)
system.cpu.statFuBusy::SimdCvt                      0      0.00%     16.45% # attempts to use FU when none available (Count)
system.cpu.statFuBusy::SimdMisc                     0      0.00%     16.45% # attempts to use FU when none available (Count)
system.cpu.statFuBusy::SimdMult                     0      0.00%     16.45% # attempts to use FU when none available (Count)
system.cpu.statFuBusy::SimdMultAcc                  0      0.00%     16.45% # attempts to use FU when none available (Count)
system.cpu.statFuBusy::SimdShift                    0      0.00%     16.45% # attempts to use FU when none available (Count)
system.cpu.statFuBusy::SimdShiftAcc                 0      0.00%     16.45% # attempts to use FU when none available (Count)
system.cpu.statFuBusy::SimdDiv                      0      0.00%     16.45% # attempts to use FU when none available (Count)
system.cpu.statFuBusy::SimdSqrt                     0      0.00%     16.45% # attempts to use FU when none available (Count)
system.cpu.statFuBusy::SimdFloatAdd                 0      0.00%     16.45% # attempts to use FU when none available (Count)
system.cpu.statFuBusy::SimdFloatAlu                 0      0.00%     16.45% # attempts to use FU when none available (Count)
system.cpu.statFuBusy::SimdFloatCmp                 0      0.00%     16.45% # attempts to use FU when none available (Count)
system.cpu.statFuBusy::SimdFloatCvt                 0      0.00%     16.45% # attempts to use FU when none available (Count)
system.cpu.statFuBusy::SimdFloatDiv                 0      0.00%     16.45% # attempts to use FU when none available (Count)
system.cpu.statFuBusy::SimdFloatMisc                0      0.00%     16.45% # attempts to use FU when none available (Count)
system.cpu.statFuBusy::SimdFloatMult                0      0.00%     16.45% # attempts to use FU when none available (Count)
system.cpu.statFuBusy::SimdFloatMultAcc             0      0.00%     16.45% # attempts to use FU when none available (Count)
system.cpu.statFuBusy::SimdFloatSqrt                0      0.00%     16.45% # attempts to use FU when none available (Count)
system.cpu.statFuBusy::SimdReduceAdd                0      0.00%     16.45% # attempts to use FU when none available (Count)
system.cpu.statFuBusy::SimdReduceAlu                0      0.00%     16.45% # attempts to use FU when none available (Count)
system.cpu.statFuBusy::SimdReduceCmp                0      0.00%     16.45% # attempts to use FU when none available (Count)
system.cpu.statFuBusy::SimdFloatReduceAdd            0      0.00%     16.45% # attempts to use FU when none available (Count)
system.cpu.statFuBusy::SimdFloatReduceCmp            0      0.00%     16.45% # attempts to use FU when none available (Count)
system.cpu.statFuBusy::SimdAes                      0      0.00%     16.45% # attempts to use FU when none available (Count)
system.cpu.statFuBusy::SimdAesMix                   0      0.00%     16.45% # attempts to use FU when none available (Count)
system.cpu.statFuBusy::SimdSha1Hash                 0      0.00%     16.45% # attempts to use FU when none available (Count)
system.cpu.statFuBusy::SimdSha1Hash2                0      0.00%     16.45% # attempts to use FU when none available (Count)
system.cpu.statFuBusy::SimdSha256Hash               0      0.00%     16.45% # attempts to use FU when none available (Count)
system.cpu.statFuBusy::SimdSha256Hash2              0      0.00%     16.45% # attempts to use FU when none available (Count)
system.cpu.statFuBusy::SimdShaSigma2                0      0.00%     16.45% # attempts to use FU when none available (Count)
system.cpu.statFuBusy::SimdShaSigma3                0      0.00%     16.45% # attempts to use FU when none available (Count)
system.cpu.statFuBusy::SimdPredAlu                  0      0.00%     16.45% # attempts to use FU when none available (Count)
system.cpu.statFuBusy::MemRead                1193395     42.49%     58.94% # attempts to use FU when none available (Count)
system.cpu.statFuBusy::MemWrite               1153439     41.06%    100.00% # attempts to use FU when none available (Count)
system.cpu.statFuBusy::FloatMemRead                 0      0.00%    100.00% # attempts to use FU when none available (Count)
system.cpu.statFuBusy::FloatMemWrite                0      0.00%    100.00% # attempts to use FU when none available (Count)
system.cpu.statFuBusy::IprAccess                    0      0.00%    100.00% # attempts to use FU when none available (Count)
system.cpu.statFuBusy::InstPrefetch                 0      0.00%    100.00% # attempts to use FU when none available (Count)
system.cpu.statIssuedInstType_0::No_OpClass       131152      0.10%      0.10% # Number of instructions issued per FU type, per thread (Count)
system.cpu.statIssuedInstType_0::IntAlu      81224027     59.10%     59.20% # Number of instructions issued per FU type, per thread (Count)
system.cpu.statIssuedInstType_0::IntMult       793675      0.58%     59.78% # Number of instructions issued per FU type, per thread (Count)
system.cpu.statIssuedInstType_0::IntDiv         89326      0.06%     59.84% # Number of instructions issued per FU type, per thread (Count)
system.cpu.statIssuedInstType_0::FloatAdd      2098790      1.53%     61.37% # Number of instructions issued per FU type, per thread (Count)
system.cpu.statIssuedInstType_0::FloatCmp        32768      0.02%     61.39% # Number of instructions issued per FU type, per thread (Count)
system.cpu.statIssuedInstType_0::FloatCvt            0      0.00%     61.39% # Number of instructions issued per FU type, per thread (Count)
system.cpu.statIssuedInstType_0::FloatMult      2097152      1.53%     62.92% # Number of instructions issued per FU type, per thread (Count)
system.cpu.statIssuedInstType_0::FloatMultAcc            0      0.00%     62.92% # Number of instructions issued per FU type, per thread (Count)
system.cpu.statIssuedInstType_0::FloatDiv            0      0.00%     62.92% # Number of instructions issued per FU type, per thread (Count)
system.cpu.statIssuedInstType_0::FloatMisc        55729      0.04%     62.96% # Number of instructions issued per FU type, per thread (Count)
system.cpu.statIssuedInstType_0::FloatSqrt            0      0.00%     62.96% # Number of instructions issued per FU type, per thread (Count)
system.cpu.statIssuedInstType_0::SimdAdd        65571      0.05%     63.01% # Number of instructions issued per FU type, per thread (Count)
system.cpu.statIssuedInstType_0::SimdAddAcc            0      0.00%     63.01% # Number of instructions issued per FU type, per thread (Count)
system.cpu.statIssuedInstType_0::SimdAlu       131135      0.10%     63.10% # Number of instructions issued per FU type, per thread (Count)
system.cpu.statIssuedInstType_0::SimdCmp       131136      0.10%     63.20% # Number of instructions issued per FU type, per thread (Count)
system.cpu.statIssuedInstType_0::SimdCvt            0      0.00%     63.20% # Number of instructions issued per FU type, per thread (Count)
system.cpu.statIssuedInstType_0::SimdMisc       129480      0.09%     63.29% # Number of instructions issued per FU type, per thread (Count)
system.cpu.statIssuedInstType_0::SimdMult            0      0.00%     63.29% # Number of instructions issued per FU type, per thread (Count)
system.cpu.statIssuedInstType_0::SimdMultAcc            0      0.00%     63.29% # Number of instructions issued per FU type, per thread (Count)
system.cpu.statIssuedInstType_0::SimdShift            0      0.00%     63.29% # Number of instructions issued per FU type, per thread (Count)
system.cpu.statIssuedInstType_0::SimdShiftAcc            0      0.00%     63.29% # Number of instructions issued per FU type, per thread (Count)
system.cpu.statIssuedInstType_0::SimdDiv            0      0.00%     63.29% # Number of instructions issued per FU type, per thread (Count)
system.cpu.statIssuedInstType_0::SimdSqrt            0      0.00%     63.29% # Number of instructions issued per FU type, per thread (Count)
system.cpu.statIssuedInstType_0::SimdFloatAdd            0      0.00%     63.29% # Number of instructions issued per FU type, per thread (Count)
system.cpu.statIssuedInstType_0::SimdFloatAlu            0      0.00%     63.29% # Number of instructions issued per FU type, per thread (Count)
system.cpu.statIssuedInstType_0::SimdFloatCmp            0      0.00%     63.29% # Number of instructions issued per FU type, per thread (Count)
system.cpu.statIssuedInstType_0::SimdFloatCvt            0      0.00%     63.29% # Number of instructions issued per FU type, per thread (Count)
system.cpu.statIssuedInstType_0::SimdFloatDiv            0      0.00%     63.29% # Number of instructions issued per FU type, per thread (Count)
system.cpu.statIssuedInstType_0::SimdFloatMisc            0      0.00%     63.29% # Number of instructions issued per FU type, per thread (Count)
system.cpu.statIssuedInstType_0::SimdFloatMult            0      0.00%     63.29% # Number of instructions issued per FU type, per thread (Count)
system.cpu.statIssuedInstType_0::SimdFloatMultAcc            0      0.00%     63.29% # Number of instructions issued per FU type, per thread (Count)
system.cpu.statIssuedInstType_0::SimdFloatSqrt            0      0.00%     63.29% # Number of instructions issued per FU type, per thread (Count)
system.cpu.statIssuedInstType_0::SimdReduceAdd            0      0.00%     63.29% # Number of instructions issued per FU type, per thread (Count)
system.cpu.statIssuedInstType_0::SimdReduceAlu            0      0.00%     63.29% # Number of instructions issued per FU type, per thread (Count)
system.cpu.statIssuedInstType_0::SimdReduceCmp            0      0.00%     63.29% # Number of instructions issued per FU type, per thread (Count)
system.cpu.statIssuedInstType_0::SimdFloatReduceAdd            0      0.00%     63.29% # Number of instructions issued per FU type, per thread (Count)
system.cpu.statIssuedInstType_0::SimdFloatReduceCmp            0      0.00%     63.29% # Number of instructions issued per FU type, per thread (Count)
system.cpu.statIssuedInstType_0::SimdAes            0      0.00%     63.29% # Number of instructions issued per FU type, per thread (Count)
system.cpu.statIssuedInstType_0::SimdAesMix            0      0.00%     63.29% # Number of instructions issued per FU type, per thread (Count)
system.cpu.statIssuedInstType_0::SimdSha1Hash            0      0.00%     63.29% # Number of instructions issued per FU type, per thread (Count)
system.cpu.statIssuedInstType_0::SimdSha1Hash2            0      0.00%     63.29% # Number of instructions issued per FU type, per thread (Count)
system.cpu.statIssuedInstType_0::SimdSha256Hash            0      0.00%     63.29% # Number of instructions issued per FU type, per thread (Count)
system.cpu.statIssuedInstType_0::SimdSha256Hash2            0      0.00%     63.29% # Number of instructions issued per FU type, per thread (Count)
system.cpu.statIssuedInstType_0::SimdShaSigma2            0      0.00%     63.29% # Number of instructions issued per FU type, per thread (Count)
system.cpu.statIssuedInstType_0::SimdShaSigma3            0      0.00%     63.29% # Number of instructions issued per FU type, per thread (Count)
system.cpu.statIssuedInstType_0::SimdPredAlu            0      0.00%     63.29% # Number of instructions issued per FU type, per thread (Count)
system.cpu.statIssuedInstType_0::MemRead     34261470     24.93%     88.22% # Number of instructions issued per FU type, per thread (Count)
system.cpu.statIssuedInstType_0::MemWrite     16186441     11.78%    100.00% # Number of instructions issued per FU type, per thread (Count)
system.cpu.statIssuedInstType_0::FloatMemRead            0      0.00%    100.00% # Number of instructions issued per FU type, per thread (Count)
system.cpu.statIssuedInstType_0::FloatMemWrite            0      0.00%    100.00% # Number of instructions issued per FU type, per thread (Count)
system.cpu.statIssuedInstType_0::IprAccess            0      0.00%    100.00% # Number of instructions issued per FU type, per thread (Count)
system.cpu.statIssuedInstType_0::InstPrefetch            0      0.00%    100.00% # Number of instructions issued per FU type, per thread (Count)
system.cpu.statIssuedInstType_0::total      137427852                       # Number of instructions issued per FU type, per thread (Count)
system.cpu.issueRate                         1.275732                       # Inst issue rate ((Count/Cycle))
system.cpu.fuBusy                             2808916                       # FU busy when requested (Count)
system.cpu.fuBusyRate                        0.020439                       # FU busy rate (busy events/executed inst) ((Count/Count))
system.cpu.intInstQueueReads                354763074                       # Number of integer instruction queue reads (Count)
system.cpu.intInstQueueWrites               128736797                       # Number of integer instruction queue writes (Count)
system.cpu.intInstQueueWakeupAccesses       120832493                       # Number of integer instruction queue wakeup accesses (Count)
system.cpu.fpInstQueueReads                         0                       # Number of floating instruction queue reads (Count)
system.cpu.fpInstQueueWrites                        0                       # Number of floating instruction queue writes (Count)
system.cpu.fpInstQueueWakeupAccesses                0                       # Number of floating instruction queue wakeup accesses (Count)
system.cpu.vecInstQueueReads                 30162731                       # Number of vector instruction queue reads (Count)
system.cpu.vecInstQueueWrites                16140296                       # Number of vector instruction queue writes (Count)
system.cpu.vecInstQueueWakeupAccesses        14536495                       # Number of vector instruction queue wakeup accesses (Count)
system.cpu.intAluAccesses                   124982215                       # Number of integer alu accesses (Count)
system.cpu.fpAluAccesses                            0                       # Number of floating point alu accesses (Count)
system.cpu.vecAluAccesses                    15123401                       # Number of vector alu accesses (Count)
system.cpu.numInsts                         136903901                       # Number of executed instructions (Count)
system.cpu.numLoadInsts                      34148307                       # Number of load instructions executed (Count)
system.cpu.numSquashedInsts                    523951                       # Number of squashed instructions skipped in execute (Count)
system.cpu.numSwp                                   0                       # Number of swp insts executed (Count)
system.cpu.numNop                              108056                       # Number of nop insts executed (Count)
system.cpu.numRefs                           50109354                       # Number of memory reference insts executed (Count)
system.cpu.numBranches                       18107076                       # Number of branches executed (Count)
system.cpu.numStoreInsts                     15961047                       # Number of stores executed (Count)
system.cpu.numRate                           1.270868                       # Inst execution rate ((Count/Cycle))
system.cpu.timesIdled                           37451                       # Number of times that the entire CPU went into an idle state and unscheduled itself (Count)
system.cpu.idleCycles                          706620                       # Total number of cycles that the CPU has spent unscheduled due to idling (Cycle)
system.cpu.committedInsts                   122782581                       # Number of Instructions Simulated (Count)
system.cpu.committedOps                     130946100                       # Number of Ops (including micro ops) Simulated (Count)
system.cpu.cpi                               0.877361                       # CPI: Cycles Per Instruction ((Cycle/Count))
system.cpu.totalCpi                          0.877361                       # CPI: Total CPI of All Threads ((Cycle/Count))
system.cpu.ipc                               1.139781                       # IPC: Instructions Per Cycle ((Count/Cycle))
system.cpu.totalIpc                          1.139781                       # IPC: Total IPC of All Threads ((Count/Cycle))
system.cpu.intRegfileReads                  153510067                       # Number of integer regfile reads (Count)
system.cpu.intRegfileWrites                  93114560                       # Number of integer regfile writes (Count)
system.cpu.vecRegfileReads                   12550159                       # number of vector regfile reads (Count)
system.cpu.vecRegfileWrites                  11191778                       # number of vector regfile writes (Count)
system.cpu.ccRegfileReads                    31524921                       # number of cc regfile reads (Count)
system.cpu.ccRegfileWrites                   31349669                       # number of cc regfile writes (Count)
system.cpu.miscRegfileReads                 293289185                       # number of misc regfile reads (Count)
system.cpu.miscRegfileWrites                  4441851                       # number of misc regfile writes (Count)
system.cpu.MemDepUnit__0.insertedLoads       33197168                       # Number of loads inserted to the mem dependence unit. (Count)
system.cpu.MemDepUnit__0.insertedStores      16833820                       # Number of stores inserted to the mem dependence unit. (Count)
system.cpu.MemDepUnit__0.conflictingLoads     10245116                       # Number of conflicting loads. (Count)
system.cpu.MemDepUnit__0.conflictingStores      3733738                       # Number of conflicting stores. (Count)
system.cpu.MemDepUnit__1.insertedLoads              0                       # Number of loads inserted to the mem dependence unit. (Count)
system.cpu.MemDepUnit__1.insertedStores             0                       # Number of stores inserted to the mem dependence unit. (Count)
system.cpu.MemDepUnit__1.conflictingLoads            0                       # Number of conflicting loads. (Count)
system.cpu.MemDepUnit__1.conflictingStores            0                       # Number of conflicting stores. (Count)
system.cpu.MemDepUnit__2.insertedLoads              0                       # Number of loads inserted to the mem dependence unit. (Count)
system.cpu.MemDepUnit__2.insertedStores             0                       # Number of stores inserted to the mem dependence unit. (Count)
system.cpu.MemDepUnit__2.conflictingLoads            0                       # Number of conflicting loads. (Count)
system.cpu.MemDepUnit__2.conflictingStores            0                       # Number of conflicting stores. (Count)
system.cpu.MemDepUnit__3.insertedLoads              0                       # Number of loads inserted to the mem dependence unit. (Count)
system.cpu.MemDepUnit__3.insertedStores             0                       # Number of stores inserted to the mem dependence unit. (Count)
system.cpu.MemDepUnit__3.conflictingLoads            0                       # Number of conflicting loads. (Count)
system.cpu.MemDepUnit__3.conflictingStores            0                       # Number of conflicting stores. (Count)
system.cpu.branchPred.lookups                18905903                       # Number of BP lookups (Count)
system.cpu.branchPred.condPredicted          13091067                       # Number of conditional branches predicted (Count)
system.cpu.branchPred.condIncorrect            139672                       # Number of conditional branches incorrect (Count)
system.cpu.branchPred.BTBLookups              9188096                       # Number of BTB lookups (Count)
system.cpu.branchPred.BTBHits                 9168427                       # Number of BTB hits (Count)
system.cpu.branchPred.BTBHitRatio            0.997859                       # BTB Hit Ratio (Ratio)
system.cpu.branchPred.RASUsed                  977867                       # Number of times the RAS was used to get a target. (Count)
system.cpu.branchPred.RASIncorrect                 30                       # Number of incorrect RAS predictions. (Count)
system.cpu.branchPred.indirectLookups          225189                       # Number of indirect predictor lookups. (Count)
system.cpu.branchPred.indirectHits             203607                       # Number of indirect target hits. (Count)
system.cpu.branchPred.indirectMisses            21582                       # Number of indirect misses. (Count)
system.cpu.branchPred.indirectMispredicted          196                       # Number of mispredicted indirect branches. (Count)
system.cpu.commit.commitSquashedInsts         6939969                       # The number of squashed insts skipped by commit (Count)
system.cpu.commit.commitNonSpecStalls          196811                       # The number of times commit has been forced to stall to communicate backwards (Count)
system.cpu.commit.branchMispredicts            134483                       # The number of times a branch was mispredicted (Count)
system.cpu.commit.numCommittedDist::samples    106059383                       # Number of insts commited each cycle (Count)
system.cpu.commit.numCommittedDist::mean     1.235623                       # Number of insts commited each cycle (Count)
system.cpu.commit.numCommittedDist::stdev     2.495459                       # Number of insts commited each cycle (Count)
system.cpu.commit.numCommittedDist::underflows            0      0.00%      0.00% # Number of insts commited each cycle (Count)
system.cpu.commit.numCommittedDist::0        73822934     69.61%     69.61% # Number of insts commited each cycle (Count)
system.cpu.commit.numCommittedDist::1        10565892      9.96%     79.57% # Number of insts commited each cycle (Count)
system.cpu.commit.numCommittedDist::2         5269738      4.97%     84.54% # Number of insts commited each cycle (Count)
system.cpu.commit.numCommittedDist::3         2050548      1.93%     86.47% # Number of insts commited each cycle (Count)
system.cpu.commit.numCommittedDist::4          878430      0.83%     87.30% # Number of insts commited each cycle (Count)
system.cpu.commit.numCommittedDist::5          585533      0.55%     87.85% # Number of insts commited each cycle (Count)
system.cpu.commit.numCommittedDist::6         2484112      2.34%     90.19% # Number of insts commited each cycle (Count)
system.cpu.commit.numCommittedDist::7          771250      0.73%     90.92% # Number of insts commited each cycle (Count)
system.cpu.commit.numCommittedDist::8         9630946      9.08%    100.00% # Number of insts commited each cycle (Count)
system.cpu.commit.numCommittedDist::overflows            0      0.00%    100.00% # Number of insts commited each cycle (Count)
system.cpu.commit.numCommittedDist::min_value            0                       # Number of insts commited each cycle (Count)
system.cpu.commit.numCommittedDist::max_value            8                       # Number of insts commited each cycle (Count)
system.cpu.commit.numCommittedDist::total    106059383                       # Number of insts commited each cycle (Count)
system.cpu.commit.instsCommitted            122885868                       # Number of instructions committed (Count)
system.cpu.commit.opsCommitted              131049387                       # Number of ops (including micro ops) committed (Count)
system.cpu.commit.memRefs                    46985553                       # Number of memory references committed (Count)
system.cpu.commit.loads                      32056055                       # Number of loads committed (Count)
system.cpu.commit.amos                          98358                       # Number of atomic instructions committed (Count)
system.cpu.commit.membars                       98368                       # Number of memory barriers committed (Count)
system.cpu.commit.branches                   17701610                       # Number of branches committed (Count)
system.cpu.commit.vectorInstructions         14144510                       # Number of committed Vector instructions. (Count)
system.cpu.commit.floating                          0                       # Number of committed floating point instructions. (Count)
system.cpu.commit.integer                   114476218                       # Number of committed integer instructions. (Count)
system.cpu.commit.functionCalls                934329                       # Number of function calls committed. (Count)
system.cpu.commit.committedInstType_0::No_OpClass       131141      0.10%      0.10% # Class of committed instruction (Count)
system.cpu.commit.committedInstType_0::IntAlu     78310207     59.76%     59.86% # Class of committed instruction (Count)
system.cpu.commit.committedInstType_0::IntMult       793339      0.61%     60.46% # Class of committed instruction (Count)
system.cpu.commit.committedInstType_0::IntDiv        89172      0.07%     60.53% # Class of committed instruction (Count)
system.cpu.commit.committedInstType_0::FloatAdd      2098790      1.60%     62.13% # Class of committed instruction (Count)
system.cpu.commit.committedInstType_0::FloatCmp        32768      0.03%     62.16% # Class of committed instruction (Count)
system.cpu.commit.committedInstType_0::FloatCvt            0      0.00%     62.16% # Class of committed instruction (Count)
system.cpu.commit.committedInstType_0::FloatMult      2097152      1.60%     63.76% # Class of committed instruction (Count)
system.cpu.commit.committedInstType_0::FloatMultAcc            0      0.00%     63.76% # Class of committed instruction (Count)
system.cpu.commit.committedInstType_0::FloatDiv            0      0.00%     63.76% # Class of committed instruction (Count)
system.cpu.commit.committedInstType_0::FloatMisc        54066      0.04%     63.80% # Class of committed instruction (Count)
system.cpu.commit.committedInstType_0::FloatSqrt            0      0.00%     63.80% # Class of committed instruction (Count)
system.cpu.commit.committedInstType_0::SimdAdd        65556      0.05%     63.85% # Class of committed instruction (Count)
system.cpu.commit.committedInstType_0::SimdAddAcc            0      0.00%     63.85% # Class of committed instruction (Count)
system.cpu.commit.committedInstType_0::SimdAlu       131098      0.10%     63.95% # Class of committed instruction (Count)
system.cpu.commit.committedInstType_0::SimdCmp       131092      0.10%     64.05% # Class of committed instruction (Count)
system.cpu.commit.committedInstType_0::SimdCvt            0      0.00%     64.05% # Class of committed instruction (Count)
system.cpu.commit.committedInstType_0::SimdMisc       129453      0.10%     64.15% # Class of committed instruction (Count)
system.cpu.commit.committedInstType_0::SimdMult            0      0.00%     64.15% # Class of committed instruction (Count)
system.cpu.commit.committedInstType_0::SimdMultAcc            0      0.00%     64.15% # Class of committed instruction (Count)
system.cpu.commit.committedInstType_0::SimdShift            0      0.00%     64.15% # Class of committed instruction (Count)
system.cpu.commit.committedInstType_0::SimdShiftAcc            0      0.00%     64.15% # Class of committed instruction (Count)
system.cpu.commit.committedInstType_0::SimdDiv            0      0.00%     64.15% # Class of committed instruction (Count)
system.cpu.commit.committedInstType_0::SimdSqrt            0      0.00%     64.15% # Class of committed instruction (Count)
system.cpu.commit.committedInstType_0::SimdFloatAdd            0      0.00%     64.15% # Class of committed instruction (Count)
system.cpu.commit.committedInstType_0::SimdFloatAlu            0      0.00%     64.15% # Class of committed instruction (Count)
system.cpu.commit.committedInstType_0::SimdFloatCmp            0      0.00%     64.15% # Class of committed instruction (Count)
system.cpu.commit.committedInstType_0::SimdFloatCvt            0      0.00%     64.15% # Class of committed instruction (Count)
system.cpu.commit.committedInstType_0::SimdFloatDiv            0      0.00%     64.15% # Class of committed instruction (Count)
system.cpu.commit.committedInstType_0::SimdFloatMisc            0      0.00%     64.15% # Class of committed instruction (Count)
system.cpu.commit.committedInstType_0::SimdFloatMult            0      0.00%     64.15% # Class of committed instruction (Count)
system.cpu.commit.committedInstType_0::SimdFloatMultAcc            0      0.00%     64.15% # Class of committed instruction (Count)
system.cpu.commit.committedInstType_0::SimdFloatSqrt            0      0.00%     64.15% # Class of committed instruction (Count)
system.cpu.commit.committedInstType_0::SimdReduceAdd            0      0.00%     64.15% # Class of committed instruction (Count)
system.cpu.commit.committedInstType_0::SimdReduceAlu            0      0.00%     64.15% # Class of committed instruction (Count)
system.cpu.commit.committedInstType_0::SimdReduceCmp            0      0.00%     64.15% # Class of committed instruction (Count)
system.cpu.commit.committedInstType_0::SimdFloatReduceAdd            0      0.00%     64.15% # Class of committed instruction (Count)
system.cpu.commit.committedInstType_0::SimdFloatReduceCmp            0      0.00%     64.15% # Class of committed instruction (Count)
system.cpu.commit.committedInstType_0::SimdAes            0      0.00%     64.15% # Class of committed instruction (Count)
system.cpu.commit.committedInstType_0::SimdAesMix            0      0.00%     64.15% # Class of committed instruction (Count)
system.cpu.commit.committedInstType_0::SimdSha1Hash            0      0.00%     64.15% # Class of committed instruction (Count)
system.cpu.commit.committedInstType_0::SimdSha1Hash2            0      0.00%     64.15% # Class of committed instruction (Count)
system.cpu.commit.committedInstType_0::SimdSha256Hash            0      0.00%     64.15% # Class of committed instruction (Count)
system.cpu.commit.committedInstType_0::SimdSha256Hash2            0      0.00%     64.15% # Class of committed instruction (Count)
system.cpu.commit.committedInstType_0::SimdShaSigma2            0      0.00%     64.15% # Class of committed instruction (Count)
system.cpu.commit.committedInstType_0::SimdShaSigma3            0      0.00%     64.15% # Class of committed instruction (Count)
system.cpu.commit.committedInstType_0::SimdPredAlu            0      0.00%     64.15% # Class of committed instruction (Count)
system.cpu.commit.committedInstType_0::MemRead     32056055     24.46%     88.61% # Class of committed instruction (Count)
system.cpu.commit.committedInstType_0::MemWrite     14929498     11.39%    100.00% # Class of committed instruction (Count)
system.cpu.commit.committedInstType_0::FloatMemRead            0      0.00%    100.00% # Class of committed instruction (Count)
system.cpu.commit.committedInstType_0::FloatMemWrite            0      0.00%    100.00% # Class of committed instruction (Count)
system.cpu.commit.committedInstType_0::IprAccess            0      0.00%    100.00% # Class of committed instruction (Count)
system.cpu.commit.committedInstType_0::InstPrefetch            0      0.00%    100.00% # Class of committed instruction (Count)
system.cpu.commit.committedInstType_0::total    131049387                       # Class of committed instruction (Count)
system.cpu.commit.commitEligibleSamples       9630946                       # number cycles where commit BW limit reached (Cycle)
system.cpu.dcache.demandHits::cpu.data       33488900                       # number of demand (read+write) hits (Count)
system.cpu.dcache.demandHits::total          33488900                       # number of demand (read+write) hits (Count)
system.cpu.dcache.overallHits::cpu.data      33539235                       # number of overall hits (Count)
system.cpu.dcache.overallHits::total         33539235                       # number of overall hits (Count)
system.cpu.dcache.demandMisses::cpu.data      2235531                       # number of demand (read+write) misses (Count)
system.cpu.dcache.demandMisses::total         2235531                       # number of demand (read+write) misses (Count)
system.cpu.dcache.overallMisses::cpu.data      2235556                       # number of overall misses (Count)
system.cpu.dcache.overallMisses::total        2235556                       # number of overall misses (Count)
system.cpu.dcache.demandMissLatency::cpu.data 128852598077                       # number of demand (read+write) miss ticks (Tick)
system.cpu.dcache.demandMissLatency::total 128852598077                       # number of demand (read+write) miss ticks (Tick)
system.cpu.dcache.overallMissLatency::cpu.data 128852598077                       # number of overall miss ticks (Tick)
system.cpu.dcache.overallMissLatency::total 128852598077                       # number of overall miss ticks (Tick)
system.cpu.dcache.demandAccesses::cpu.data     35724431                       # number of demand (read+write) accesses (Count)
system.cpu.dcache.demandAccesses::total      35724431                       # number of demand (read+write) accesses (Count)
system.cpu.dcache.overallAccesses::cpu.data     35774791                       # number of overall (read+write) accesses (Count)
system.cpu.dcache.overallAccesses::total     35774791                       # number of overall (read+write) accesses (Count)
system.cpu.dcache.demandMissRate::cpu.data     0.062577                       # miss rate for demand accesses (Ratio)
system.cpu.dcache.demandMissRate::total      0.062577                       # miss rate for demand accesses (Ratio)
system.cpu.dcache.overallMissRate::cpu.data     0.062490                       # miss rate for overall accesses (Ratio)
system.cpu.dcache.overallMissRate::total     0.062490                       # miss rate for overall accesses (Ratio)
system.cpu.dcache.demandAvgMissLatency::cpu.data 57638.475189                       # average overall miss latency ((Cycle/Count))
system.cpu.dcache.demandAvgMissLatency::total 57638.475189                       # average overall miss latency ((Cycle/Count))
system.cpu.dcache.overallAvgMissLatency::cpu.data 57637.830623                       # average overall miss latency ((Cycle/Count))
system.cpu.dcache.overallAvgMissLatency::total 57637.830623                       # average overall miss latency ((Cycle/Count))
system.cpu.dcache.blockedCycles::no_mshrs     40208176                       # number of cycles access was blocked (Cycle)
system.cpu.dcache.blockedCycles::no_targets            0                       # number of cycles access was blocked (Cycle)
system.cpu.dcache.blockedCauses::no_mshrs       817943                       # number of times access was blocked (Count)
system.cpu.dcache.blockedCauses::no_targets            0                       # number of times access was blocked (Count)
system.cpu.dcache.avgBlocked::no_mshrs      49.157675                       # average number of cycles each access was blocked ((Cycle/Count))
system.cpu.dcache.avgBlocked::no_targets          nan                       # average number of cycles each access was blocked ((Cycle/Count))
system.cpu.dcache.writebacks::writebacks        28701                       # number of writebacks (Count)
system.cpu.dcache.writebacks::total             28701                       # number of writebacks (Count)
system.cpu.dcache.demandMshrHits::cpu.data        72253                       # number of demand (read+write) MSHR hits (Count)
system.cpu.dcache.demandMshrHits::total         72253                       # number of demand (read+write) MSHR hits (Count)
system.cpu.dcache.overallMshrHits::cpu.data        72253                       # number of overall MSHR hits (Count)
system.cpu.dcache.overallMshrHits::total        72253                       # number of overall MSHR hits (Count)
system.cpu.dcache.demandMshrMisses::cpu.data      2163278                       # number of demand (read+write) MSHR misses (Count)
system.cpu.dcache.demandMshrMisses::total      2163278                       # number of demand (read+write) MSHR misses (Count)
system.cpu.dcache.overallMshrMisses::cpu.data      2163303                       # number of overall MSHR misses (Count)
system.cpu.dcache.overallMshrMisses::total      2163303                       # number of overall MSHR misses (Count)
system.cpu.dcache.demandMshrMissLatency::cpu.data 124245082127                       # number of demand (read+write) MSHR miss ticks (Tick)
system.cpu.dcache.demandMshrMissLatency::total 124245082127                       # number of demand (read+write) MSHR miss ticks (Tick)
system.cpu.dcache.overallMshrMissLatency::cpu.data 124246426627                       # number of overall MSHR miss ticks (Tick)
system.cpu.dcache.overallMshrMissLatency::total 124246426627                       # number of overall MSHR miss ticks (Tick)
system.cpu.dcache.demandMshrMissRate::cpu.data     0.060555                       # mshr miss ratio for demand accesses (Ratio)
system.cpu.dcache.demandMshrMissRate::total     0.060555                       # mshr miss ratio for demand accesses (Ratio)
system.cpu.dcache.overallMshrMissRate::cpu.data     0.060470                       # mshr miss ratio for overall accesses (Ratio)
system.cpu.dcache.overallMshrMissRate::total     0.060470                       # mshr miss ratio for overall accesses (Ratio)
system.cpu.dcache.demandAvgMshrMissLatency::cpu.data 57433.710382                       # average overall mshr miss latency ((Cycle/Count))
system.cpu.dcache.demandAvgMshrMissLatency::total 57433.710382                       # average overall mshr miss latency ((Cycle/Count))
system.cpu.dcache.overallAvgMshrMissLatency::cpu.data 57433.668158                       # average overall mshr miss latency ((Cycle/Count))
system.cpu.dcache.overallAvgMshrMissLatency::total 57433.668158                       # average overall mshr miss latency ((Cycle/Count))
system.cpu.dcache.replacements                2162795                       # number of replacements (Count)
system.cpu.dcache.LoadLockedReq.hits::cpu.data           33                       # number of LoadLockedReq hits (Count)
system.cpu.dcache.LoadLockedReq.hits::total           33                       # number of LoadLockedReq hits (Count)
system.cpu.dcache.LoadLockedReq.misses::cpu.data            6                       # number of LoadLockedReq misses (Count)
system.cpu.dcache.LoadLockedReq.misses::total            6                       # number of LoadLockedReq misses (Count)
system.cpu.dcache.LoadLockedReq.missLatency::cpu.data       449500                       # number of LoadLockedReq miss ticks (Tick)
system.cpu.dcache.LoadLockedReq.missLatency::total       449500                       # number of LoadLockedReq miss ticks (Tick)
system.cpu.dcache.LoadLockedReq.accesses::cpu.data           39                       # number of LoadLockedReq accesses(hits+misses) (Count)
system.cpu.dcache.LoadLockedReq.accesses::total           39                       # number of LoadLockedReq accesses(hits+misses) (Count)
system.cpu.dcache.LoadLockedReq.missRate::cpu.data     0.153846                       # miss rate for LoadLockedReq accesses (Ratio)
system.cpu.dcache.LoadLockedReq.missRate::total     0.153846                       # miss rate for LoadLockedReq accesses (Ratio)
system.cpu.dcache.LoadLockedReq.avgMissLatency::cpu.data 74916.666667                       # average LoadLockedReq miss latency ((Tick/Count))
system.cpu.dcache.LoadLockedReq.avgMissLatency::total 74916.666667                       # average LoadLockedReq miss latency ((Tick/Count))
system.cpu.dcache.LoadLockedReq.mshrHits::cpu.data            2                       # number of LoadLockedReq MSHR hits (Count)
system.cpu.dcache.LoadLockedReq.mshrHits::total            2                       # number of LoadLockedReq MSHR hits (Count)
system.cpu.dcache.LoadLockedReq.mshrMisses::cpu.data            4                       # number of LoadLockedReq MSHR misses (Count)
system.cpu.dcache.LoadLockedReq.mshrMisses::total            4                       # number of LoadLockedReq MSHR misses (Count)
system.cpu.dcache.LoadLockedReq.mshrMissLatency::cpu.data       361500                       # number of LoadLockedReq MSHR miss ticks (Tick)
system.cpu.dcache.LoadLockedReq.mshrMissLatency::total       361500                       # number of LoadLockedReq MSHR miss ticks (Tick)
system.cpu.dcache.LoadLockedReq.mshrMissRate::cpu.data     0.102564                       # mshr miss rate for LoadLockedReq accesses (Ratio)
system.cpu.dcache.LoadLockedReq.mshrMissRate::total     0.102564                       # mshr miss rate for LoadLockedReq accesses (Ratio)
system.cpu.dcache.LoadLockedReq.avgMshrMissLatency::cpu.data        90375                       # average LoadLockedReq mshr miss latency ((Tick/Count))
system.cpu.dcache.LoadLockedReq.avgMshrMissLatency::total        90375                       # average LoadLockedReq mshr miss latency ((Tick/Count))
system.cpu.dcache.ReadReq.hits::cpu.data     18702693                       # number of ReadReq hits (Count)
system.cpu.dcache.ReadReq.hits::total        18702693                       # number of ReadReq hits (Count)
system.cpu.dcache.ReadReq.misses::cpu.data      2190600                       # number of ReadReq misses (Count)
system.cpu.dcache.ReadReq.misses::total       2190600                       # number of ReadReq misses (Count)
system.cpu.dcache.ReadReq.missLatency::cpu.data 127422271500                       # number of ReadReq miss ticks (Tick)
system.cpu.dcache.ReadReq.missLatency::total 127422271500                       # number of ReadReq miss ticks (Tick)
system.cpu.dcache.ReadReq.accesses::cpu.data     20893293                       # number of ReadReq accesses(hits+misses) (Count)
system.cpu.dcache.ReadReq.accesses::total     20893293                       # number of ReadReq accesses(hits+misses) (Count)
system.cpu.dcache.ReadReq.missRate::cpu.data     0.104847                       # miss rate for ReadReq accesses (Ratio)
system.cpu.dcache.ReadReq.missRate::total     0.104847                       # miss rate for ReadReq accesses (Ratio)
system.cpu.dcache.ReadReq.avgMissLatency::cpu.data 58167.749247                       # average ReadReq miss latency ((Tick/Count))
system.cpu.dcache.ReadReq.avgMissLatency::total 58167.749247                       # average ReadReq miss latency ((Tick/Count))
system.cpu.dcache.ReadReq.mshrHits::cpu.data        56089                       # number of ReadReq MSHR hits (Count)
system.cpu.dcache.ReadReq.mshrHits::total        56089                       # number of ReadReq MSHR hits (Count)
system.cpu.dcache.ReadReq.mshrMisses::cpu.data      2134511                       # number of ReadReq MSHR misses (Count)
system.cpu.dcache.ReadReq.mshrMisses::total      2134511                       # number of ReadReq MSHR misses (Count)
system.cpu.dcache.ReadReq.mshrMissLatency::cpu.data 123328089500                       # number of ReadReq MSHR miss ticks (Tick)
system.cpu.dcache.ReadReq.mshrMissLatency::total 123328089500                       # number of ReadReq MSHR miss ticks (Tick)
system.cpu.dcache.ReadReq.mshrMissRate::cpu.data     0.102162                       # mshr miss rate for ReadReq accesses (Ratio)
system.cpu.dcache.ReadReq.mshrMissRate::total     0.102162                       # mshr miss rate for ReadReq accesses (Ratio)
system.cpu.dcache.ReadReq.avgMshrMissLatency::cpu.data 57778.146611                       # average ReadReq mshr miss latency ((Tick/Count))
system.cpu.dcache.ReadReq.avgMshrMissLatency::total 57778.146611                       # average ReadReq mshr miss latency ((Tick/Count))
system.cpu.dcache.SoftPFReq.hits::cpu.data        50335                       # number of SoftPFReq hits (Count)
system.cpu.dcache.SoftPFReq.hits::total         50335                       # number of SoftPFReq hits (Count)
system.cpu.dcache.SoftPFReq.misses::cpu.data           25                       # number of SoftPFReq misses (Count)
system.cpu.dcache.SoftPFReq.misses::total           25                       # number of SoftPFReq misses (Count)
system.cpu.dcache.SoftPFReq.accesses::cpu.data        50360                       # number of SoftPFReq accesses(hits+misses) (Count)
system.cpu.dcache.SoftPFReq.accesses::total        50360                       # number of SoftPFReq accesses(hits+misses) (Count)
system.cpu.dcache.SoftPFReq.missRate::cpu.data     0.000496                       # miss rate for SoftPFReq accesses (Ratio)
system.cpu.dcache.SoftPFReq.missRate::total     0.000496                       # miss rate for SoftPFReq accesses (Ratio)
system.cpu.dcache.SoftPFReq.mshrMisses::cpu.data           25                       # number of SoftPFReq MSHR misses (Count)
system.cpu.dcache.SoftPFReq.mshrMisses::total           25                       # number of SoftPFReq MSHR misses (Count)
system.cpu.dcache.SoftPFReq.mshrMissLatency::cpu.data      1344500                       # number of SoftPFReq MSHR miss ticks (Tick)
system.cpu.dcache.SoftPFReq.mshrMissLatency::total      1344500                       # number of SoftPFReq MSHR miss ticks (Tick)
system.cpu.dcache.SoftPFReq.mshrMissRate::cpu.data     0.000496                       # mshr miss rate for SoftPFReq accesses (Ratio)
system.cpu.dcache.SoftPFReq.mshrMissRate::total     0.000496                       # mshr miss rate for SoftPFReq accesses (Ratio)
system.cpu.dcache.SoftPFReq.avgMshrMissLatency::cpu.data        53780                       # average SoftPFReq mshr miss latency ((Tick/Count))
system.cpu.dcache.SoftPFReq.avgMshrMissLatency::total        53780                       # average SoftPFReq mshr miss latency ((Tick/Count))
system.cpu.dcache.StoreCondReq.hits::cpu.data           10                       # number of StoreCondReq hits (Count)
system.cpu.dcache.StoreCondReq.hits::total           10                       # number of StoreCondReq hits (Count)
system.cpu.dcache.StoreCondReq.accesses::cpu.data           10                       # number of StoreCondReq accesses(hits+misses) (Count)
system.cpu.dcache.StoreCondReq.accesses::total           10                       # number of StoreCondReq accesses(hits+misses) (Count)
system.cpu.dcache.SwapReq.hits::cpu.data        98357                       # number of SwapReq hits (Count)
system.cpu.dcache.SwapReq.hits::total           98357                       # number of SwapReq hits (Count)
system.cpu.dcache.SwapReq.misses::cpu.data            1                       # number of SwapReq misses (Count)
system.cpu.dcache.SwapReq.misses::total             1                       # number of SwapReq misses (Count)
system.cpu.dcache.SwapReq.missLatency::cpu.data        73000                       # number of SwapReq miss ticks (Tick)
system.cpu.dcache.SwapReq.missLatency::total        73000                       # number of SwapReq miss ticks (Tick)
system.cpu.dcache.SwapReq.accesses::cpu.data        98358                       # number of SwapReq accesses(hits+misses) (Count)
system.cpu.dcache.SwapReq.accesses::total        98358                       # number of SwapReq accesses(hits+misses) (Count)
system.cpu.dcache.SwapReq.missRate::cpu.data     0.000010                       # miss rate for SwapReq accesses (Ratio)
system.cpu.dcache.SwapReq.missRate::total     0.000010                       # miss rate for SwapReq accesses (Ratio)
system.cpu.dcache.SwapReq.avgMissLatency::cpu.data        73000                       # average SwapReq miss latency ((Tick/Count))
system.cpu.dcache.SwapReq.avgMissLatency::total        73000                       # average SwapReq miss latency ((Tick/Count))
system.cpu.dcache.SwapReq.mshrHits::cpu.data            1                       # number of SwapReq MSHR hits (Count)
system.cpu.dcache.SwapReq.mshrHits::total            1                       # number of SwapReq MSHR hits (Count)
system.cpu.dcache.WriteLineReq.misses::cpu.data            9                       # number of WriteLineReq misses (Count)
system.cpu.dcache.WriteLineReq.misses::total            9                       # number of WriteLineReq misses (Count)
system.cpu.dcache.WriteLineReq.missLatency::cpu.data        96998                       # number of WriteLineReq miss ticks (Tick)
system.cpu.dcache.WriteLineReq.missLatency::total        96998                       # number of WriteLineReq miss ticks (Tick)
system.cpu.dcache.WriteLineReq.accesses::cpu.data            9                       # number of WriteLineReq accesses(hits+misses) (Count)
system.cpu.dcache.WriteLineReq.accesses::total            9                       # number of WriteLineReq accesses(hits+misses) (Count)
system.cpu.dcache.WriteLineReq.missRate::cpu.data            1                       # miss rate for WriteLineReq accesses (Ratio)
system.cpu.dcache.WriteLineReq.missRate::total            1                       # miss rate for WriteLineReq accesses (Ratio)
system.cpu.dcache.WriteLineReq.avgMissLatency::cpu.data 10777.555556                       # average WriteLineReq miss latency ((Tick/Count))
system.cpu.dcache.WriteLineReq.avgMissLatency::total 10777.555556                       # average WriteLineReq miss latency ((Tick/Count))
system.cpu.dcache.WriteLineReq.mshrMisses::cpu.data            9                       # number of WriteLineReq MSHR misses (Count)
system.cpu.dcache.WriteLineReq.mshrMisses::total            9                       # number of WriteLineReq MSHR misses (Count)
system.cpu.dcache.WriteLineReq.mshrMissLatency::cpu.data        87998                       # number of WriteLineReq MSHR miss ticks (Tick)
system.cpu.dcache.WriteLineReq.mshrMissLatency::total        87998                       # number of WriteLineReq MSHR miss ticks (Tick)
system.cpu.dcache.WriteLineReq.mshrMissRate::cpu.data            1                       # mshr miss rate for WriteLineReq accesses (Ratio)
system.cpu.dcache.WriteLineReq.mshrMissRate::total            1                       # mshr miss rate for WriteLineReq accesses (Ratio)
system.cpu.dcache.WriteLineReq.avgMshrMissLatency::cpu.data  9777.555556                       # average WriteLineReq mshr miss latency ((Tick/Count))
system.cpu.dcache.WriteLineReq.avgMshrMissLatency::total  9777.555556                       # average WriteLineReq mshr miss latency ((Tick/Count))
system.cpu.dcache.WriteReq.hits::cpu.data     14786207                       # number of WriteReq hits (Count)
system.cpu.dcache.WriteReq.hits::total       14786207                       # number of WriteReq hits (Count)
system.cpu.dcache.WriteReq.misses::cpu.data        44922                       # number of WriteReq misses (Count)
system.cpu.dcache.WriteReq.misses::total        44922                       # number of WriteReq misses (Count)
system.cpu.dcache.WriteReq.missLatency::cpu.data   1430229579                       # number of WriteReq miss ticks (Tick)
system.cpu.dcache.WriteReq.missLatency::total   1430229579                       # number of WriteReq miss ticks (Tick)
system.cpu.dcache.WriteReq.accesses::cpu.data     14831129                       # number of WriteReq accesses(hits+misses) (Count)
system.cpu.dcache.WriteReq.accesses::total     14831129                       # number of WriteReq accesses(hits+misses) (Count)
system.cpu.dcache.WriteReq.missRate::cpu.data     0.003029                       # miss rate for WriteReq accesses (Ratio)
system.cpu.dcache.WriteReq.missRate::total     0.003029                       # miss rate for WriteReq accesses (Ratio)
system.cpu.dcache.WriteReq.avgMissLatency::cpu.data 31838.065514                       # average WriteReq miss latency ((Tick/Count))
system.cpu.dcache.WriteReq.avgMissLatency::total 31838.065514                       # average WriteReq miss latency ((Tick/Count))
system.cpu.dcache.WriteReq.mshrHits::cpu.data        16164                       # number of WriteReq MSHR hits (Count)
system.cpu.dcache.WriteReq.mshrHits::total        16164                       # number of WriteReq MSHR hits (Count)
system.cpu.dcache.WriteReq.mshrMisses::cpu.data        28758                       # number of WriteReq MSHR misses (Count)
system.cpu.dcache.WriteReq.mshrMisses::total        28758                       # number of WriteReq MSHR misses (Count)
system.cpu.dcache.WriteReq.mshrMissLatency::cpu.data    916904629                       # number of WriteReq MSHR miss ticks (Tick)
system.cpu.dcache.WriteReq.mshrMissLatency::total    916904629                       # number of WriteReq MSHR miss ticks (Tick)
system.cpu.dcache.WriteReq.mshrMissRate::cpu.data     0.001939                       # mshr miss rate for WriteReq accesses (Ratio)
system.cpu.dcache.WriteReq.mshrMissRate::total     0.001939                       # mshr miss rate for WriteReq accesses (Ratio)
system.cpu.dcache.WriteReq.avgMshrMissLatency::cpu.data 31883.463002                       # average WriteReq mshr miss latency ((Tick/Count))
system.cpu.dcache.WriteReq.avgMshrMissLatency::total 31883.463002                       # average WriteReq mshr miss latency ((Tick/Count))
system.cpu.dcache.power_state.pwrStateResidencyTicks::UNDEFINED  53862344500                       # Cumulative time (in ticks) in various power states (Tick)
system.cpu.dcache.tags.tagsInUse           511.235575                       # Average ticks per tags in use ((Tick/Count))
system.cpu.dcache.tags.totalRefs             35800942                       # Total number of references to valid blocks. (Count)
system.cpu.dcache.tags.sampledRefs            2163307                       # Sample count of references to valid blocks. (Count)
system.cpu.dcache.tags.avgRefs              16.549173                       # Average number of references to valid blocks. ((Count/Count))
system.cpu.dcache.tags.warmupTick              145000                       # The tick when the warmup percentage was hit. (Tick)
system.cpu.dcache.tags.occupancies::cpu.data   511.235575                       # Average occupied blocks per tick, per requestor ((Count/Tick))
system.cpu.dcache.tags.avgOccs::cpu.data     0.998507                       # Average percentage of cache occupancy ((Ratio/Tick))
system.cpu.dcache.tags.avgOccs::total        0.998507                       # Average percentage of cache occupancy ((Ratio/Tick))
system.cpu.dcache.tags.occupanciesTaskId::1024          512                       # Occupied blocks per task id (Count)
system.cpu.dcache.tags.ageTaskId_1024::0           64                       # Occupied blocks per task id, per block age (Count)
system.cpu.dcache.tags.ageTaskId_1024::1           19                       # Occupied blocks per task id, per block age (Count)
system.cpu.dcache.tags.ageTaskId_1024::2          156                       # Occupied blocks per task id, per block age (Count)
system.cpu.dcache.tags.ageTaskId_1024::3          272                       # Occupied blocks per task id, per block age (Count)
system.cpu.dcache.tags.ageTaskId_1024::4            1                       # Occupied blocks per task id, per block age (Count)
system.cpu.dcache.tags.ratioOccsTaskId::1024            1                       # Ratio of occupied blocks and all blocks, per task id (Ratio)
system.cpu.dcache.tags.tagAccesses           73909703                       # Number of tag accesses (Count)
system.cpu.dcache.tags.dataAccesses          73909703                       # Number of data accesses (Count)
system.cpu.dcache.tags.power_state.pwrStateResidencyTicks::UNDEFINED  53862344500                       # Cumulative time (in ticks) in various power states (Tick)
system.cpu.decode.idleCycles                 12604266                       # Number of cycles decode is idle (Cycle)
system.cpu.decode.blockedCycles              71278678                       # Number of cycles decode is blocked (Cycle)
system.cpu.decode.runCycles                  17382969                       # Number of cycles decode is running (Cycle)
system.cpu.decode.unblockCycles               5542331                       # Number of cycles decode is unblocking (Cycle)
system.cpu.decode.squashCycles                 209826                       # Number of cycles decode is squashing (Cycle)
system.cpu.decode.branchResolved              9053736                       # Number of times decode resolved a branch (Count)
system.cpu.decode.branchMispred                  5204                       # Number of times decode detected a branch misprediction (Count)
system.cpu.decode.decodedInsts              140190903                       # Number of instructions handled by decode (Count)
system.cpu.decode.squashedInsts                 37208                       # Number of squashed instructions handled by decode (Count)
system.cpu.fetch.icacheStallCycles           19128500                       # Number of cycles fetch is stalled on an Icache miss (Cycle)
system.cpu.fetch.insts                      132527453                       # Number of instructions fetch has processed (Count)
system.cpu.fetch.branches                    18905903                       # Number of branches that fetch encountered (Count)
system.cpu.fetch.predictedBranches           10349901                       # Number of branches that fetch has predicted taken (Count)
system.cpu.fetch.cycles                      87674427                       # Number of cycles fetch has run and was not squashing or blocked (Cycle)
system.cpu.fetch.squashCycles                  430030                       # Number of cycles fetch has spent squashing (Cycle)
system.cpu.fetch.miscStallCycles                    8                       # Number of cycles fetch has spent waiting on interrupts, or bad addresses, or out of MSHRs (Cycle)
system.cpu.fetch.icacheWaitRetryStallCycles          120                       # Number of stall cycles due to full MSHR (Cycle)
system.cpu.fetch.cacheLines                  17899087                       # Number of cache lines fetched (Count)
system.cpu.fetch.icacheSquashes                 67947                       # Number of outstanding Icache misses that were squashed (Count)
system.cpu.fetch.nisnDist::samples          107018070                       # Number of instructions fetched each cycle (Total) (Count)
system.cpu.fetch.nisnDist::mean              1.336083                       # Number of instructions fetched each cycle (Total) (Count)
system.cpu.fetch.nisnDist::stdev             2.650478                       # Number of instructions fetched each cycle (Total) (Count)
system.cpu.fetch.nisnDist::underflows               0      0.00%      0.00% # Number of instructions fetched each cycle (Total) (Count)
system.cpu.fetch.nisnDist::0                 77760724     72.66%     72.66% # Number of instructions fetched each cycle (Total) (Count)
system.cpu.fetch.nisnDist::1                  6344859      5.93%     78.59% # Number of instructions fetched each cycle (Total) (Count)
system.cpu.fetch.nisnDist::2                  3115673      2.91%     81.50% # Number of instructions fetched each cycle (Total) (Count)
system.cpu.fetch.nisnDist::3                  1883738      1.76%     83.26% # Number of instructions fetched each cycle (Total) (Count)
system.cpu.fetch.nisnDist::4                  2162704      2.02%     85.28% # Number of instructions fetched each cycle (Total) (Count)
system.cpu.fetch.nisnDist::5                  1459496      1.36%     86.65% # Number of instructions fetched each cycle (Total) (Count)
system.cpu.fetch.nisnDist::6                  2071674      1.94%     88.58% # Number of instructions fetched each cycle (Total) (Count)
system.cpu.fetch.nisnDist::7                  1374398      1.28%     89.87% # Number of instructions fetched each cycle (Total) (Count)
system.cpu.fetch.nisnDist::8                 10844804     10.13%    100.00% # Number of instructions fetched each cycle (Total) (Count)
system.cpu.fetch.nisnDist::overflows                0      0.00%    100.00% # Number of instructions fetched each cycle (Total) (Count)
system.cpu.fetch.nisnDist::min_value                0                       # Number of instructions fetched each cycle (Total) (Count)
system.cpu.fetch.nisnDist::max_value                8                       # Number of instructions fetched each cycle (Total) (Count)
system.cpu.fetch.nisnDist::total            107018070                       # Number of instructions fetched each cycle (Total) (Count)
system.cpu.fetch.branchRate                  0.175502                       # Number of branch fetches per cycle (Ratio)
system.cpu.fetch.rate                        1.230242                       # Number of inst fetches per cycle ((Count/Cycle))
system.cpu.icache.demandHits::cpu.inst       17855392                       # number of demand (read+write) hits (Count)
system.cpu.icache.demandHits::total          17855392                       # number of demand (read+write) hits (Count)
system.cpu.icache.overallHits::cpu.inst      17855392                       # number of overall hits (Count)
system.cpu.icache.overallHits::total         17855392                       # number of overall hits (Count)
system.cpu.icache.demandMisses::cpu.inst        43695                       # number of demand (read+write) misses (Count)
system.cpu.icache.demandMisses::total           43695                       # number of demand (read+write) misses (Count)
system.cpu.icache.overallMisses::cpu.inst        43695                       # number of overall misses (Count)
system.cpu.icache.overallMisses::total          43695                       # number of overall misses (Count)
system.cpu.icache.demandMissLatency::cpu.inst   1054798997                       # number of demand (read+write) miss ticks (Tick)
system.cpu.icache.demandMissLatency::total   1054798997                       # number of demand (read+write) miss ticks (Tick)
system.cpu.icache.overallMissLatency::cpu.inst   1054798997                       # number of overall miss ticks (Tick)
system.cpu.icache.overallMissLatency::total   1054798997                       # number of overall miss ticks (Tick)
system.cpu.icache.demandAccesses::cpu.inst     17899087                       # number of demand (read+write) accesses (Count)
system.cpu.icache.demandAccesses::total      17899087                       # number of demand (read+write) accesses (Count)
system.cpu.icache.overallAccesses::cpu.inst     17899087                       # number of overall (read+write) accesses (Count)
system.cpu.icache.overallAccesses::total     17899087                       # number of overall (read+write) accesses (Count)
system.cpu.icache.demandMissRate::cpu.inst     0.002441                       # miss rate for demand accesses (Ratio)
system.cpu.icache.demandMissRate::total      0.002441                       # miss rate for demand accesses (Ratio)
system.cpu.icache.overallMissRate::cpu.inst     0.002441                       # miss rate for overall accesses (Ratio)
system.cpu.icache.overallMissRate::total     0.002441                       # miss rate for overall accesses (Ratio)
system.cpu.icache.demandAvgMissLatency::cpu.inst 24140.038837                       # average overall miss latency ((Cycle/Count))
system.cpu.icache.demandAvgMissLatency::total 24140.038837                       # average overall miss latency ((Cycle/Count))
system.cpu.icache.overallAvgMissLatency::cpu.inst 24140.038837                       # average overall miss latency ((Cycle/Count))
system.cpu.icache.overallAvgMissLatency::total 24140.038837                       # average overall miss latency ((Cycle/Count))
system.cpu.icache.blockedCycles::no_mshrs         1208                       # number of cycles access was blocked (Cycle)
system.cpu.icache.blockedCycles::no_targets            0                       # number of cycles access was blocked (Cycle)
system.cpu.icache.blockedCauses::no_mshrs           22                       # number of times access was blocked (Count)
system.cpu.icache.blockedCauses::no_targets            0                       # number of times access was blocked (Count)
system.cpu.icache.avgBlocked::no_mshrs      54.909091                       # average number of cycles each access was blocked ((Cycle/Count))
system.cpu.icache.avgBlocked::no_targets          nan                       # average number of cycles each access was blocked ((Cycle/Count))
system.cpu.icache.writebacks::writebacks        40261                       # number of writebacks (Count)
system.cpu.icache.writebacks::total             40261                       # number of writebacks (Count)
system.cpu.icache.demandMshrHits::cpu.inst         2934                       # number of demand (read+write) MSHR hits (Count)
system.cpu.icache.demandMshrHits::total          2934                       # number of demand (read+write) MSHR hits (Count)
system.cpu.icache.overallMshrHits::cpu.inst         2934                       # number of overall MSHR hits (Count)
system.cpu.icache.overallMshrHits::total         2934                       # number of overall MSHR hits (Count)
system.cpu.icache.demandMshrMisses::cpu.inst        40761                       # number of demand (read+write) MSHR misses (Count)
system.cpu.icache.demandMshrMisses::total        40761                       # number of demand (read+write) MSHR misses (Count)
system.cpu.icache.overallMshrMisses::cpu.inst        40761                       # number of overall MSHR misses (Count)
system.cpu.icache.overallMshrMisses::total        40761                       # number of overall MSHR misses (Count)
system.cpu.icache.demandMshrMissLatency::cpu.inst    960033998                       # number of demand (read+write) MSHR miss ticks (Tick)
system.cpu.icache.demandMshrMissLatency::total    960033998                       # number of demand (read+write) MSHR miss ticks (Tick)
system.cpu.icache.overallMshrMissLatency::cpu.inst    960033998                       # number of overall MSHR miss ticks (Tick)
system.cpu.icache.overallMshrMissLatency::total    960033998                       # number of overall MSHR miss ticks (Tick)
system.cpu.icache.demandMshrMissRate::cpu.inst     0.002277                       # mshr miss ratio for demand accesses (Ratio)
system.cpu.icache.demandMshrMissRate::total     0.002277                       # mshr miss ratio for demand accesses (Ratio)
system.cpu.icache.overallMshrMissRate::cpu.inst     0.002277                       # mshr miss ratio for overall accesses (Ratio)
system.cpu.icache.overallMshrMissRate::total     0.002277                       # mshr miss ratio for overall accesses (Ratio)
system.cpu.icache.demandAvgMshrMissLatency::cpu.inst 23552.758715                       # average overall mshr miss latency ((Cycle/Count))
system.cpu.icache.demandAvgMshrMissLatency::total 23552.758715                       # average overall mshr miss latency ((Cycle/Count))
system.cpu.icache.overallAvgMshrMissLatency::cpu.inst 23552.758715                       # average overall mshr miss latency ((Cycle/Count))
system.cpu.icache.overallAvgMshrMissLatency::total 23552.758715                       # average overall mshr miss latency ((Cycle/Count))
system.cpu.icache.replacements                  40261                       # number of replacements (Count)
system.cpu.icache.ReadReq.hits::cpu.inst     17855392                       # number of ReadReq hits (Count)
system.cpu.icache.ReadReq.hits::total        17855392                       # number of ReadReq hits (Count)
system.cpu.icache.ReadReq.misses::cpu.inst        43695                       # number of ReadReq misses (Count)
system.cpu.icache.ReadReq.misses::total         43695                       # number of ReadReq misses (Count)
system.cpu.icache.ReadReq.missLatency::cpu.inst   1054798997                       # number of ReadReq miss ticks (Tick)
system.cpu.icache.ReadReq.missLatency::total   1054798997                       # number of ReadReq miss ticks (Tick)
system.cpu.icache.ReadReq.accesses::cpu.inst     17899087                       # number of ReadReq accesses(hits+misses) (Count)
system.cpu.icache.ReadReq.accesses::total     17899087                       # number of ReadReq accesses(hits+misses) (Count)
system.cpu.icache.ReadReq.missRate::cpu.inst     0.002441                       # miss rate for ReadReq accesses (Ratio)
system.cpu.icache.ReadReq.missRate::total     0.002441                       # miss rate for ReadReq accesses (Ratio)
system.cpu.icache.ReadReq.avgMissLatency::cpu.inst 24140.038837                       # average ReadReq miss latency ((Tick/Count))
system.cpu.icache.ReadReq.avgMissLatency::total 24140.038837                       # average ReadReq miss latency ((Tick/Count))
system.cpu.icache.ReadReq.mshrHits::cpu.inst         2934                       # number of ReadReq MSHR hits (Count)
system.cpu.icache.ReadReq.mshrHits::total         2934                       # number of ReadReq MSHR hits (Count)
system.cpu.icache.ReadReq.mshrMisses::cpu.inst        40761                       # number of ReadReq MSHR misses (Count)
system.cpu.icache.ReadReq.mshrMisses::total        40761                       # number of ReadReq MSHR misses (Count)
system.cpu.icache.ReadReq.mshrMissLatency::cpu.inst    960033998                       # number of ReadReq MSHR miss ticks (Tick)
system.cpu.icache.ReadReq.mshrMissLatency::total    960033998                       # number of ReadReq MSHR miss ticks (Tick)
system.cpu.icache.ReadReq.mshrMissRate::cpu.inst     0.002277                       # mshr miss rate for ReadReq accesses (Ratio)
system.cpu.icache.ReadReq.mshrMissRate::total     0.002277                       # mshr miss rate for ReadReq accesses (Ratio)
system.cpu.icache.ReadReq.avgMshrMissLatency::cpu.inst 23552.758715                       # average ReadReq mshr miss latency ((Tick/Count))
system.cpu.icache.ReadReq.avgMshrMissLatency::total 23552.758715                       # average ReadReq mshr miss latency ((Tick/Count))
system.cpu.icache.power_state.pwrStateResidencyTicks::UNDEFINED  53862344500                       # Cumulative time (in ticks) in various power states (Tick)
system.cpu.icache.tags.tagsInUse           493.217310                       # Average ticks per tags in use ((Tick/Count))
system.cpu.icache.tags.totalRefs             17896152                       # Total number of references to valid blocks. (Count)
system.cpu.icache.tags.sampledRefs              40760                       # Sample count of references to valid blocks. (Count)
system.cpu.icache.tags.avgRefs             439.061629                       # Average number of references to valid blocks. ((Count/Count))
system.cpu.icache.tags.warmupTick               77000                       # The tick when the warmup percentage was hit. (Tick)
system.cpu.icache.tags.occupancies::cpu.inst   493.217310                       # Average occupied blocks per tick, per requestor ((Count/Tick))
system.cpu.icache.tags.avgOccs::cpu.inst     0.963315                       # Average percentage of cache occupancy ((Ratio/Tick))
system.cpu.icache.tags.avgOccs::total        0.963315                       # Average percentage of cache occupancy ((Ratio/Tick))
system.cpu.icache.tags.occupanciesTaskId::1024          499                       # Occupied blocks per task id (Count)
system.cpu.icache.tags.ageTaskId_1024::0           93                       # Occupied blocks per task id, per block age (Count)
system.cpu.icache.tags.ageTaskId_1024::2            8                       # Occupied blocks per task id, per block age (Count)
system.cpu.icache.tags.ageTaskId_1024::3          187                       # Occupied blocks per task id, per block age (Count)
system.cpu.icache.tags.ageTaskId_1024::4          211                       # Occupied blocks per task id, per block age (Count)
system.cpu.icache.tags.ratioOccsTaskId::1024     0.974609                       # Ratio of occupied blocks and all blocks, per task id (Ratio)
system.cpu.icache.tags.tagAccesses           35838934                       # Number of tag accesses (Count)
system.cpu.icache.tags.dataAccesses          35838934                       # Number of data accesses (Count)
system.cpu.icache.tags.power_state.pwrStateResidencyTicks::UNDEFINED  53862344500                       # Cumulative time (in ticks) in various power states (Tick)
system.cpu.iew.idleCycles                           0                       # Number of cycles IEW is idle (Cycle)
system.cpu.iew.squashCycles                    209826                       # Number of cycles IEW is squashing (Cycle)
system.cpu.iew.blockCycles                    1981832                       # Number of cycles IEW is blocking (Cycle)
[...]
system.mem_ctrls.dram.bwRead::cpu.inst       48431609                       # Total read bandwidth from this memory ((Byte/Second))
system.mem_ctrls.dram.bwRead::cpu.data     2570443476                       # Total read bandwidth from this memory ((Byte/Second))
system.mem_ctrls.dram.bwRead::total        2618875084                       # Total read bandwidth from this memory ((Byte/Second))
system.mem_ctrls.dram.bwInstRead::cpu.inst     48431609                       # Instruction read bandwidth from this memory ((Byte/Second))
system.mem_ctrls.dram.bwInstRead::total      48431609                       # Instruction read bandwidth from this memory ((Byte/Second))
system.mem_ctrls.dram.bwWrite::writebacks     34102934                       # Write bandwidth from this memory ((Byte/Second))
system.mem_ctrls.dram.bwWrite::total         34102934                       # Write bandwidth from this memory ((Byte/Second))
system.mem_ctrls.dram.bwTotal::writebacks     34102934                       # Total bandwidth to/from this memory ((Byte/Second))
system.mem_ctrls.dram.bwTotal::cpu.inst      48431609                       # Total bandwidth to/from this memory ((Byte/Second))
system.mem_ctrls.dram.bwTotal::cpu.data    2570443476                       # Total bandwidth to/from this memory ((Byte/Second))
system.mem_ctrls.dram.bwTotal::total       2652978019                       # Total bandwidth to/from this memory ((Byte/Second))
system.mem_ctrls.dram.readBursts              2141356                       # Number of DRAM read bursts (Count)
system.mem_ctrls.dram.writeBursts                8918                       # Number of DRAM write bursts (Count)
system.mem_ctrls.dram.perBankRdBursts::0       133046                       # Per bank write bursts (Count)
system.mem_ctrls.dram.perBankRdBursts::1       133071                       # Per bank write bursts (Count)
system.mem_ctrls.dram.perBankRdBursts::2       133133                       # Per bank write bursts (Count)
system.mem_ctrls.dram.perBankRdBursts::3       133078                       # Per bank write bursts (Count)
system.mem_ctrls.dram.perBankRdBursts::4       137570                       # Per bank write bursts (Count)
system.mem_ctrls.dram.perBankRdBursts::5       133300                       # Per bank write bursts (Count)
system.mem_ctrls.dram.perBankRdBursts::6       132811                       # Per bank write bursts (Count)
system.mem_ctrls.dram.perBankRdBursts::7       132908                       # Per bank write bursts (Count)
system.mem_ctrls.dram.perBankRdBursts::8       137225                       # Per bank write bursts (Count)
system.mem_ctrls.dram.perBankRdBursts::9       133003                       # Per bank write bursts (Count)
system.mem_ctrls.dram.perBankRdBursts::10       135063                       # Per bank write bursts (Count)
system.mem_ctrls.dram.perBankRdBursts::11       133056                       # Per bank write bursts (Count)
system.mem_ctrls.dram.perBankRdBursts::12       135280                       # Per bank write bursts (Count)
system.mem_ctrls.dram.perBankRdBursts::13       132936                       # Per bank write bursts (Count)
system.mem_ctrls.dram.perBankRdBursts::14       132956                       # Per bank write bursts (Count)
system.mem_ctrls.dram.perBankRdBursts::15       132920                       # Per bank write bursts (Count)
system.mem_ctrls.dram.perBankWrBursts::0          486                       # Per bank write bursts (Count)
system.mem_ctrls.dram.perBankWrBursts::1          477                       # Per bank write bursts (Count)
system.mem_ctrls.dram.perBankWrBursts::2          543                       # Per bank write bursts (Count)
system.mem_ctrls.dram.perBankWrBursts::3          574                       # Per bank write bursts (Count)
system.mem_ctrls.dram.perBankWrBursts::4          517                       # Per bank write bursts (Count)
system.mem_ctrls.dram.perBankWrBursts::5          593                       # Per bank write bursts (Count)
system.mem_ctrls.dram.perBankWrBursts::6          605                       # Per bank write bursts (Count)
system.mem_ctrls.dram.perBankWrBursts::7          555                       # Per bank write bursts (Count)
system.mem_ctrls.dram.perBankWrBursts::8          744                       # Per bank write bursts (Count)
system.mem_ctrls.dram.perBankWrBursts::9          616                       # Per bank write bursts (Count)
system.mem_ctrls.dram.perBankWrBursts::10          474                       # Per bank write bursts (Count)
system.mem_ctrls.dram.perBankWrBursts::11          578                       # Per bank write bursts (Count)
system.mem_ctrls.dram.perBankWrBursts::12          493                       # Per bank write bursts (Count)
system.mem_ctrls.dram.perBankWrBursts::13          708                       # Per bank write bursts (Count)
system.mem_ctrls.dram.perBankWrBursts::14          508                       # Per bank write bursts (Count)
system.mem_ctrls.dram.perBankWrBursts::15          447                       # Per bank write bursts (Count)
system.mem_ctrls.dram.totQLat             15602756250                       # Total ticks spent queuing (Tick)
system.mem_ctrls.dram.totBusLat           10706780000                       # Total ticks spent in databus transfers (Tick)
system.mem_ctrls.dram.totMemAccLat        55753181250                       # Total ticks spent from burst creation until serviced by the DRAM (Tick)
system.mem_ctrls.dram.avgQLat                 7286.39                       # Average queueing delay per DRAM burst ((Tick/Count))
system.mem_ctrls.dram.avgBusLat               5000.00                       # Average bus latency per DRAM burst ((Tick/Count))
system.mem_ctrls.dram.avgMemAccLat           26036.39                       # Average memory access latency per DRAM burst ((Tick/Count))
system.mem_ctrls.dram.readRowHits             1933224                       # Number of row buffer hits during reads (Count)
system.mem_ctrls.dram.writeRowHits               7335                       # Number of row buffer hits during writes (Count)
system.mem_ctrls.dram.readRowHitRate            90.28                       # Row buffer hit rate for reads (Ratio)
system.mem_ctrls.dram.writeRowHitRate           82.25                       # Row buffer hit rate for writes (Ratio)
system.mem_ctrls.dram.bytesPerActivate::samples       209702                       # Bytes accessed per row activation (Byte)
system.mem_ctrls.dram.bytesPerActivate::mean   656.242783                       # Bytes accessed per row activation (Byte)
system.mem_ctrls.dram.bytesPerActivate::gmean   498.282805                       # Bytes accessed per row activation (Byte)
system.mem_ctrls.dram.bytesPerActivate::stdev   367.346154                       # Bytes accessed per row activation (Byte)
system.mem_ctrls.dram.bytesPerActivate::0-127        19523      9.31%      9.31% # Bytes accessed per row activation (Byte)
system.mem_ctrls.dram.bytesPerActivate::128-255        21970     10.48%     19.79% # Bytes accessed per row activation (Byte)
system.mem_ctrls.dram.bytesPerActivate::256-383        19236      9.17%     28.96% # Bytes accessed per row activation (Byte)
system.mem_ctrls.dram.bytesPerActivate::384-511         1427      0.68%     29.64% # Bytes accessed per row activation (Byte)
system.mem_ctrls.dram.bytesPerActivate::512-639        46565     22.21%     51.85% # Bytes accessed per row activation (Byte)
system.mem_ctrls.dram.bytesPerActivate::640-767         1981      0.94%     52.79% # Bytes accessed per row activation (Byte)
system.mem_ctrls.dram.bytesPerActivate::768-895         2118      1.01%     53.80% # Bytes accessed per row activation (Byte)
system.mem_ctrls.dram.bytesPerActivate::896-1023         2085      0.99%     54.79% # Bytes accessed per row activation (Byte)
system.mem_ctrls.dram.bytesPerActivate::1024-1151        94797     45.21%    100.00% # Bytes accessed per row activation (Byte)
system.mem_ctrls.dram.bytesPerActivate::total       209702                       # Bytes accessed per row activation (Byte)
system.mem_ctrls.dram.bytesRead             137046784                       # Total bytes read (Byte)
system.mem_ctrls.dram.bytesWritten             570752                       # Total bytes written (Byte)
system.mem_ctrls.dram.avgRdBW             2544.389504                       # Average DRAM read bandwidth in MiBytes/s ((Byte/Second))
system.mem_ctrls.dram.avgWrBW               10.596494                       # Average DRAM write bandwidth in MiBytes/s ((Byte/Second))
system.mem_ctrls.dram.peakBW                 12800.00                       # Theoretical peak bandwidth in MiByte/s ((Byte/Second))
system.mem_ctrls.dram.busUtil                   19.96                       # Data bus utilization in percentage (Ratio)
system.mem_ctrls.dram.busUtilRead               19.88                       # Data bus utilization in percentage for reads (Ratio)
system.mem_ctrls.dram.busUtilWrite               0.08                       # Data bus utilization in percentage for writes (Ratio)
system.mem_ctrls.dram.pageHitRate               90.25                       # Row buffer hit rate, read and write combined (Ratio)
system.mem_ctrls.dram.power_state.pwrStateResidencyTicks::UNDEFINED  53862344500                       # Cumulative time (in ticks) in various power states (Tick)
system.mem_ctrls.dram.rank0.actEnergy       823356240                       # Energy for activate commands per rank (pJ) (Joule)
system.mem_ctrls.dram.rank0.preEnergy       437601450                       # Energy for precharge commands per rank (pJ) (Joule)
system.mem_ctrls.dram.rank0.readEnergy     7632060240                       # Energy for read commands per rank (pJ) (Joule)
system.mem_ctrls.dram.rank0.writeEnergy      22707000                       # Energy for write commands per rank (pJ) (Joule)
system.mem_ctrls.dram.rank0.refreshEnergy 4251464880.000000                       # Energy for refresh commands per rank (pJ) (Joule)
system.mem_ctrls.dram.rank0.actBackEnergy  21825541680                       # Energy for active background per rank (pJ) (Joule)
system.mem_ctrls.dram.rank0.preBackEnergy   2303736960                       # Energy for precharge background per rank (pJ) (Joule)
system.mem_ctrls.dram.rank0.actPowerDownEnergy            0                       # Energy for active power-down per rank (pJ) (Joule)
system.mem_ctrls.dram.rank0.prePowerDownEnergy            0                       # Energy for precharge power-down per rank (pJ) (Joule)
system.mem_ctrls.dram.rank0.selfRefreshEnergy            0                       # Energy for self refresh per rank (pJ) (Joule)
system.mem_ctrls.dram.rank0.totalEnergy   37296468450                       # Total energy per rank (pJ) (Joule)
system.mem_ctrls.dram.rank0.averagePower   692.440494                       # Core power per rank (mW) (Watt)
system.mem_ctrls.dram.rank0.totalIdleTime            0                       # Total Idle time Per DRAM Rank (Tick)
system.mem_ctrls.dram.rank0.pwrStateTime::IDLE   5798453750                       # Time in different power states (Tick)
system.mem_ctrls.dram.rank0.pwrStateTime::REF   1798420000                       # Time in different power states (Tick)
system.mem_ctrls.dram.rank0.pwrStateTime::SREF            0                       # Time in different power states (Tick)
system.mem_ctrls.dram.rank0.pwrStateTime::PRE_PDN            0                       # Time in different power states (Tick)
system.mem_ctrls.dram.rank0.pwrStateTime::ACT  46265470750                       # Time in different power states (Tick)
system.mem_ctrls.dram.rank0.pwrStateTime::ACT_PDN            0                       # Time in different power states (Tick)
system.mem_ctrls.dram.rank1.actEnergy       674001720                       # Energy for activate commands per rank (pJ) (Joule)
system.mem_ctrls.dram.rank1.preEnergy       358217640                       # Energy for precharge commands per rank (pJ) (Joule)
system.mem_ctrls.dram.rank1.readEnergy     7657214460                       # Energy for read commands per rank (pJ) (Joule)
system.mem_ctrls.dram.rank1.writeEnergy      23844960                       # Energy for write commands per rank (pJ) (Joule)
system.mem_ctrls.dram.rank1.refreshEnergy 4251464880.000000                       # Energy for refresh commands per rank (pJ) (Joule)
system.mem_ctrls.dram.rank1.actBackEnergy  22050144480                       # Energy for active background per rank (pJ) (Joule)
system.mem_ctrls.dram.rank1.preBackEnergy   2114597760                       # Energy for precharge background per rank (pJ) (Joule)
system.mem_ctrls.dram.rank1.actPowerDownEnergy            0                       # Energy for active power-down per rank (pJ) (Joule)
system.mem_ctrls.dram.rank1.prePowerDownEnergy            0                       # Energy for precharge power-down per rank (pJ) (Joule)
system.mem_ctrls.dram.rank1.selfRefreshEnergy            0                       # Energy for self refresh per rank (pJ) (Joule)
system.mem_ctrls.dram.rank1.totalEnergy   37129485900                       # Total energy per rank (pJ) (Joule)
system.mem_ctrls.dram.rank1.averagePower   689.340322                       # Core power per rank (mW) (Watt)
system.mem_ctrls.dram.rank1.totalIdleTime            0                       # Total Idle time Per DRAM Rank (Tick)
system.mem_ctrls.dram.rank1.pwrStateTime::IDLE   5260633250                       # Time in different power states (Tick)
system.mem_ctrls.dram.rank1.pwrStateTime::REF   1798420000                       # Time in different power states (Tick)
system.mem_ctrls.dram.rank1.pwrStateTime::SREF            0                       # Time in different power states (Tick)
system.mem_ctrls.dram.rank1.pwrStateTime::PRE_PDN            0                       # Time in different power states (Tick)
system.mem_ctrls.dram.rank1.pwrStateTime::ACT  46803291250                       # Time in different power states (Tick)
system.mem_ctrls.dram.rank1.pwrStateTime::ACT_PDN            0                       # Time in different power states (Tick)
system.mem_ctrls.power_state.pwrStateResidencyTicks::UNDEFINED  53862344500                       # Cumulative time (in ticks) in various power states (Tick)
system.membus.transDist::ReadResp             2175300                       # Transaction distribution (Count)
system.membus.transDist::WritebackDirty         28701                       # Transaction distribution (Count)
system.membus.transDist::WritebackClean         40261                       # Transaction distribution (Count)
system.membus.transDist::CleanEvict           2134094                       # Transaction distribution (Count)
system.membus.transDist::ReadExReq              28743                       # Transaction distribution (Count)
system.membus.transDist::ReadExResp             28743                       # Transaction distribution (Count)
system.membus.transDist::ReadCleanReq           40761                       # Transaction distribution (Count)
system.membus.transDist::ReadSharedReq        2134540                       # Transaction distribution (Count)
system.membus.transDist::InvalidateReq             24                       # Transaction distribution (Count)
system.membus.pktCount_system.cpu.icache.mem_side_port::system.mem_ctrls.port       121782                       # Packet count per connected requestor and responder (Count)
system.membus.pktCount_system.cpu.dcache.mem_side_port::system.mem_ctrls.port      6489385                       # Packet count per connected requestor and responder (Count)
system.membus.pktCount::total                 6611167                       # Packet count per connected requestor and responder (Count)
system.membus.pktSize_system.cpu.icache.mem_side_port::system.mem_ctrls.port      5185344                       # Cumulative packet size per connected requestor and responder (Byte)
system.membus.pktSize_system.cpu.dcache.mem_side_port::system.mem_ctrls.port    140286976                       # Cumulative packet size per connected requestor and responder (Byte)
system.membus.pktSize::total                145472320                       # Cumulative packet size per connected requestor and responder (Byte)
system.membus.snoops                                0                       # Total snoops (Count)
system.membus.snoopTraffic                          0                       # Total snoop traffic (Byte)
system.membus.snoopFanout::samples            2204068                       # Request fanout histogram (Count)
system.membus.snoopFanout::mean              0.000001                       # Request fanout histogram (Count)
system.membus.snoopFanout::stdev             0.000953                       # Request fanout histogram (Count)
system.membus.snoopFanout::underflows               0      0.00%      0.00% # Request fanout histogram (Count)
system.membus.snoopFanout::0                  2204066    100.00%    100.00% # Request fanout histogram (Count)
system.membus.snoopFanout::1                        2      0.00%    100.00% # Request fanout histogram (Count)
system.membus.snoopFanout::2                        0      0.00%    100.00% # Request fanout histogram (Count)
system.membus.snoopFanout::overflows                0      0.00%    100.00% # Request fanout histogram (Count)
system.membus.snoopFanout::min_value                0                       # Request fanout histogram (Count)
system.membus.snoopFanout::max_value                1                       # Request fanout histogram (Count)
system.membus.snoopFanout::total              2204068                       # Request fanout histogram (Count)
system.membus.power_state.pwrStateResidencyTicks::UNDEFINED  53862344500                       # Cumulative time (in ticks) in various power states (Tick)
system.membus.reqLayer0.occupancy          5416792500                       # Layer occupancy (ticks) (Tick)
system.membus.reqLayer0.utilization               0.1                       # Layer utilization (Ratio)
system.membus.respLayer1.occupancy          204345250                       # Layer occupancy (ticks) (Tick)
system.membus.respLayer1.utilization              0.0                       # Layer utilization (Ratio)
system.membus.respLayer2.occupancy        11232430250                       # Layer occupancy (ticks) (Tick)
system.membus.respLayer2.utilization              0.2                       # Layer utilization (Ratio)
system.membus.snoop_filter.totRequests        4407124                       # Total number of requests made to the snoop filter. (Count)
system.membus.snoop_filter.hitSingleRequests      2203057                       # Number of requests hitting in the snoop filter with a single holder of the requested data. (Count)
system.membus.snoop_filter.hitMultiRequests            1                       # Number of requests hitting in the snoop filter with multiple (>1) holders of the requested data. (Count)
system.membus.snoop_filter.totSnoops                0                       # Total number of snoops made to the snoop filter. (Count)
system.membus.snoop_filter.hitSingleSnoops            0                       # Number of snoops hitting in the snoop filter with a single holder of the requested data. (Count)
system.membus.snoop_filter.hitMultiSnoops            0                       # Number of snoops hitting in the snoop filter with multiple (>1) holders of the requested data. (Count)
system.voltage_domain.voltage                       1                       # Voltage in Volts (Volt)
system.workload.inst.arm                            0                       # number of arm instructions executed (Count)
system.workload.inst.quiesce                        0                       # number of quiesce instructions executed (Count)

---------- End Simulation Statistics   ----------
