
---------- Begin Simulation Statistics ----------
simSeconds                                   0.000270                       # Number of seconds simulated (Second)
simTicks                                    269754000                       # Number of ticks simulated (Tick)
finalTick                                   269754000                       # Number of ticks from beginning of simulation (restored from checkpoints and never reset) (Tick)
simFreq                                  1000000000000                       # The number of ticks per simulated second ((Tick/Second))
hostSeconds                                      1.04                       # Real time elapsed on the host (Second)
hostTickRate                                259322056                       # The number of ticks simulated per host second (ticks/s) ((Tick/Second))
hostMemory                                     670920                       # Number of bytes of host memory used (Byte)
simInsts                                       808582                       # Number of instructions simulated (Count)
simOps                                         817727                       # Number of ops (including micro ops) simulated (Count)
hostInstRate                                   777279                       # Simulator instruction rate (inst/s) ((Count/Second))
hostOpRate                                     786067                       # Simulator op (including micro ops) rate (op/s) ((Count/Second))
system.clk_domain.clock                          1000                       # Clock period in ticks (Tick)
system.cpu.numCycles                           539509                       # Number of cpu cycles simulated (Cycle)
system.cpu.numWorkItemsStarted                      0                       # Number of work items this cpu started (Count)
system.cpu.numWorkItemsCompleted                    0                       # Number of work items this cpu completed (Count)
system.cpu.instsAdded                          847020                       # Number of instructions added to the IQ (excludes non-spec) (Count)
system.cpu.nonSpecInstsAdded                      115                       # Number of non-speculative instructions added to the IQ (Count)
system.cpu.instsIssued                         839937                       # Number of instructions issued (Count)
system.cpu.squashedInstsIssued                    262                       # Number of squashed instructions issued (Count)
system.cpu.squashedInstsExamined                29407                       # Number of squashed instructions iterated over during squash; mainly for profiling (Count)
system.cpu.squashedOperandsExamined             22222                       # Number of squashed operands that are examined and possibly removed from graph (Count)
system.cpu.squashedNonSpecRemoved                  55                       # Number of squashed non-spec instructions that were removed (Count)
system.cpu.numIssuedDist::samples              498562                       # Number of insts issued each cycle (Count)
system.cpu.numIssuedDist::mean               1.684719                       # Number of insts issued each cycle (Count)
system.cpu.numIssuedDist::stdev              1.419213                       # Number of insts issued each cycle (Count)
system.cpu.numIssuedDist::underflows                0      0.00%      0.00% # Number of insts issued each cycle (Count)
system.cpu.numIssuedDist::0                    152846     30.66%     30.66% # Number of insts issued each cycle (Count)
system.cpu.numIssuedDist::1                     48574      9.74%     40.40% # Number of insts issued each cycle (Count)
system.cpu.numIssuedDist::2                    184710     37.05%     77.45% # Number of insts issued each cycle (Count)
system.cpu.numIssuedDist::3                     37657      7.55%     85.00% # Number of insts issued each cycle (Count)
system.cpu.numIssuedDist::4                     67936     13.63%     98.63% # Number of insts issued each cycle (Count)
system.cpu.numIssuedDist::5                      4435      0.89%     99.52% # Number of insts issued each cycle (Count)
system.cpu.numIssuedDist::6                      1947      0.39%     99.91% # Number of insts issued each cycle (Count)
system.cpu.numIssuedDist::7                       285      0.06%     99.97% # Number of insts issued each cycle (Count)
system.cpu.numIssuedDist::8                       172      0.03%    100.00% # Number of insts issued each cycle (Count)
system.cpu.numIssuedDist::overflows                 0      0.00%    100.00% # Number of insts issued each cycle (Count)
system.cpu.numIssuedDist::min_value                 0                       # Number of insts issued each cycle (Count)
system.cpu.numIssuedDist::max_value                 8                       # Number of insts issued each cycle (Count)
system.cpu.numIssuedDist::total                498562                       # Number of insts issued each cycle (Count)
system.cpu.statFuBusy::No_OpClass                   0      0.00%      0.00% # attempts to use FU when none available (Count)
system.cpu.statFuBusy::IntAlu                     103      0.33%      0.33% # attempts to use FU when none available (Count)
system.cpu.statFuBusy::IntMult                      0      0.00%      0.33% # attempts to use FU when none available (Count)
system.cpu.statFuBusy::IntDiv                       0      0.00%      0.33% # attempts to use FU when none available (Count)
system.cpu.statFuBusy::FloatAdd                     0      0.00%      0.33% # attempts to use FU when none available (Count)
system.cpu.statFuBusy::FloatCmp                     0      0.00%      0.33% # attempts to use FU when none available (Count)
system.cpu.statFuBusy::FloatCvt                     0      0.00%      0.33% # attempts to use FU when none available (Count)
system.cpu.statFuBusy::FloatMult                    0      0.00%      0.33% # attempts to use FU when none available (Count)
system.cpu.statFuBusy::FloatMultAcc                 0      0.00%      0.33% # attempts to use FU when none available (Count)
system.cpu.statFuBusy::FloatDiv                     0      0.00%      0.33% # attempts to use FU when none available (Count)
system.cpu.statFuBusy::FloatMisc                    0      0.00%      0.33% # attempts to use FU when none available (Count)
system.cpu.statFuBusy::FloatSqrt                    0      0.00%      0.33% # attempts to use FU when none available (Count)
system.cpu.statFuBusy::SimdAdd                      0      0.00%      0.33% # attempts to use FU when none available (Count)
system.cpu.statFuBusy::SimdAddAcc                   0      0.00%      0.33% # attempts to use FU when none available (Count)
system.cpu.statFuBusy::SimdAlu                      0      0.00%      0.33% # attempts to use FU when none available (Count)
system.cpu.statFuBusy::SimdCmp                      1      0.00%      0.33% # attempts to use FU when none available (Count)
system.cpu.statFuBusy::SimdCvt                      0      0.00%      0.33% # attempts to use FU when none available (Count)
system.cpu.statFuBusy::SimdMisc                     0      0.00%      0.33% # attempts to use FU when none available (Count)
system.cpu.statFuBusy::SimdMult                     0      0.00%      0.33% # attempts to use FU when none available (Count)
system.cpu.statFuBusy::SimdMultAcc                  0      0.00%      0.33% # attempts to use FU when none available (Count)
system.cpu.statFuBusy::SimdShift                    0      0.00%      0.33% # attempts to use FU when none available (Count)
system.cpu.statFuBusy::SimdShiftAcc                 0      0.00%      0.33% # attempts to use FU when none available (Count)
system.cpu.statFuBusy::SimdDiv                      0      0.00%      0.33% # attempts to use FU when none available (Count)
system.cpu.statFuBusy::SimdSqrt                     0      0.00%      0.33% # attempts to use FU when none available (Count)
system.cpu.statFuBusy::SimdFloatAdd                 0      0.00%      0.33% # attempts to use FU when none available (Count)
system.cpu.statFuBusy::SimdFloatAlu                 0      0.00%      0.33% # attempts to use FU when none available (Count)
system.cpu.statFuBusy::SimdFloatCmp                 0      0.00%      0.33% # attempts to use FU when none available (Count)
system.cpu.statFuBusy::SimdFloatCvt                 0      0.00%      0.33% # attempts to use FU when none available (Count)
system.cpu.statFuBusy::SimdFloatDiv                 0      0.00%      0.33% # attempts to use FU when none available (Count)
system.cpu.statFuBusy::SimdFloatMisc                0      0.00%      0.33% # attempts to use FU when none available (Count)
system.cpu.statFuBusy::SimdFloatMult                0      0.00%      0.33% # attempts to use FU when none available (Count)
system.cpu.statFuBusy::SimdFloatMultAcc             0      0.00%      0.33% # attempts to use FU when none available (Count)
system.cpu.statFuBusy::SimdFloatSqrt                0      0.00%      0.33% # attempts to use FU when none available (Count)
system.cpu.statFuBusy::SimdReduceAdd                0      0.00%      0.33% # attempts to use FU when none available (Count)
system.cpu.statFuBusy::SimdReduceAlu                0      0.00%      0.33% # attempts to use FU when none available (Count)
system.cpu.statFuBusy::SimdReduceCmp                0      0.00%      0.33% # attempts to use FU when none available (Count)
system.cpu.statFuBusy::SimdFloatReduceAdd            0      0.00%      0.33% # attempts to use FU when none available (Count)
system.cpu.statFuBusy::SimdFloatReduceCmp            0      0.00%      0.33% # attempts to use FU when none available (Count)
system.cpu.statFuBusy::SimdAes                      0      0.00%      0.33% # attempts to use FU when none available (Count)
system.cpu.statFuBusy::SimdAesMix                   0      0.00%      0.33% # attempts to use FU when none available (Count)
system.cpu.statFuBusy::SimdSha1Hash                 0      0.00%      0.33% # attempts to use FU when none available (Count)
system.cpu.statFuBusy::SimdSha1Hash2                0      0.00%      0.33% # attempts to use FU when none available (Count)
system.cpu.statFuBusy::SimdSha256Hash               0      0.00%      0.33% # attempts to use FU when none available (Count)
system.cpu.statFuBusy::SimdSha256Hash2              0      0.00%      0.33% # attempts to use FU when none available (Count)
system.cpu.statFuBusy::SimdShaSigma2                0      0.00%      0.33% # attempts to use FU when none available (Count)
system.cpu.statFuBusy::SimdShaSigma3                0      0.00%      0.33% # attempts to use FU when none available (Count)
system.cpu.statFuBusy::SimdPredAlu                  0      0.00%      0.33% # attempts to use FU when none available (Count)
system.cpu.statFuBusy::MemRead                  30778     99.05%     99.38% # attempts to use FU when none available (Count)
system.cpu.statFuBusy::MemWrite                   192      0.62%    100.00% # attempts to use FU when none available (Count)
system.cpu.statFuBusy::FloatMemRead                 0      0.00%    100.00% # attempts to use FU when none available (Count)
system.cpu.statFuBusy::FloatMemWrite                0      0.00%    100.00% # attempts to use FU when none available (Count)
system.cpu.statFuBusy::IprAccess                    0      0.00%    100.00% # attempts to use FU when none available (Count)
system.cpu.statFuBusy::InstPrefetch                 0      0.00%    100.00% # attempts to use FU when none available (Count)
system.cpu.statIssuedInstType_0::No_OpClass           29      0.00%      0.00% # Number of instructions issued per FU type, per thread (Count)
system.cpu.statIssuedInstType_0::IntAlu        454509     54.11%     54.12% # Number of instructions issued per FU type, per thread (Count)
system.cpu.statIssuedInstType_0::IntMult           11      0.00%     54.12% # Number of instructions issued per FU type, per thread (Count)
system.cpu.statIssuedInstType_0::IntDiv             4      0.00%     54.12% # Number of instructions issued per FU type, per thread (Count)
system.cpu.statIssuedInstType_0::FloatAdd            0      0.00%     54.12% # Number of instructions issued per FU type, per thread (Count)
system.cpu.statIssuedInstType_0::FloatCmp            0      0.00%     54.12% # Number of instructions issued per FU type, per thread (Count)
system.cpu.statIssuedInstType_0::FloatCvt            0      0.00%     54.12% # Number of instructions issued per FU type, per thread (Count)
system.cpu.statIssuedInstType_0::FloatMult            0      0.00%     54.12% # Number of instructions issued per FU type, per thread (Count)
system.cpu.statIssuedInstType_0::FloatMultAcc            0      0.00%     54.12% # Number of instructions issued per FU type, per thread (Count)
system.cpu.statIssuedInstType_0::FloatDiv            0      0.00%     54.12% # Number of instructions issued per FU type, per thread (Count)
system.cpu.statIssuedInstType_0::FloatMisc            0      0.00%     54.12% # Number of instructions issued per FU type, per thread (Count)
system.cpu.statIssuedInstType_0::FloatSqrt            0      0.00%     54.12% # Number of instructions issued per FU type, per thread (Count)
system.cpu.statIssuedInstType_0::SimdAdd           30      0.00%     54.12% # Number of instructions issued per FU type, per thread (Count)
system.cpu.statIssuedInstType_0::SimdAddAcc            0      0.00%     54.12% # Number of instructions issued per FU type, per thread (Count)
system.cpu.statIssuedInstType_0::SimdAlu           45      0.01%     54.13% # Number of instructions issued per FU type, per thread (Count)
system.cpu.statIssuedInstType_0::SimdCmp           44      0.01%     54.13% # Number of instructions issued per FU type, per thread (Count)
system.cpu.statIssuedInstType_0::SimdCvt            0      0.00%     54.13% # Number of instructions issued per FU type, per thread (Count)
system.cpu.statIssuedInstType_0::SimdMisc           39      0.00%     54.14% # Number of instructions issued per FU type, per thread (Count)
system.cpu.statIssuedInstType_0::SimdMult            0      0.00%     54.14% # Number of instructions issued per FU type, per thread (Count)
system.cpu.statIssuedInstType_0::SimdMultAcc            0      0.00%     54.14% # Number of instructions issued per FU type, per thread (Count)
system.cpu.statIssuedInstType_0::SimdShift            0      0.00%     54.14% # Number of instructions issued per FU type, per thread (Count)
system.cpu.statIssuedInstType_0::SimdShiftAcc            0      0.00%     54.14% # Number of instructions issued per FU type, per thread (Count)
system.cpu.statIssuedInstType_0::SimdDiv            0      0.00%     54.14% # Number of instructions issued per FU type, per thread (Count)
system.cpu.statIssuedInstType_0::SimdSqrt            0      0.00%     54.14% # Number of instructions issued per FU type, per thread (Count)
system.cpu.statIssuedInstType_0::SimdFloatAdd            0      0.00%     54.14% # Number of instructions issued per FU type, per thread (Count)
system.cpu.statIssuedInstType_0::SimdFloatAlu            0      0.00%     54.14% # Number of instructions issued per FU type, per thread (Count)
system.cpu.statIssuedInstType_0::SimdFloatCmp            0      0.00%     54.14% # Number of instructions issued per FU type, per thread (Count)
system.cpu.statIssuedInstType_0::SimdFloatCvt            0      0.00%     54.14% # Number of instructions issued per FU type, per thread (Count)
system.cpu.statIssuedInstType_0::SimdFloatDiv            0      0.00%     54.14% # Number of instructions issued per FU type, per thread (Count)
system.cpu.statIssuedInstType_0::SimdFloatMisc            0      0.00%     54.14% # Number of instructions issued per FU type, per thread (Count)
system.cpu.statIssuedInstType_0::SimdFloatMult            0      0.00%     54.14% # Number of instructions issued per FU type, per thread (Count)
system.cpu.statIssuedInstType_0::SimdFloatMultAcc            0      0.00%     54.14% # Number of instructions issued per FU type, per thread (Count)
system.cpu.statIssuedInstType_0::SimdFloatSqrt            0      0.00%     54.14% # Number of instructions issued per FU type, per thread (Count)
system.cpu.statIssuedInstType_0::SimdReduceAdd            0      0.00%     54.14% # Number of instructions issued per FU type, per thread (Count)
system.cpu.statIssuedInstType_0::SimdReduceAlu            0      0.00%     54.14% # Number of instructions issued per FU type, per thread (Count)
system.cpu.statIssuedInstType_0::SimdReduceCmp            0      0.00%     54.14% # Number of instructions issued per FU type, per thread (Count)
system.cpu.statIssuedInstType_0::SimdFloatReduceAdd            0      0.00%     54.14% # Number of instructions issued per FU type, per thread (Count)
system.cpu.statIssuedInstType_0::SimdFloatReduceCmp            0      0.00%     54.14% # Number of instructions issued per FU type, per thread (Count)
system.cpu.statIssuedInstType_0::SimdAes            0      0.00%     54.14% # Number of instructions issued per FU type, per thread (Count)
system.cpu.statIssuedInstType_0::SimdAesMix            0      0.00%     54.14% # Number of instructions issued per FU type, per thread (Count)
system.cpu.statIssuedInstType_0::SimdSha1Hash            0      0.00%     54.14% # Number of instructions issued per FU type, per thread (Count)
system.cpu.statIssuedInstType_0::SimdSha1Hash2            0      0.00%     54.14% # Number of instructions issued per FU type, per thread (Count)
system.cpu.statIssuedInstType_0::SimdSha256Hash            0      0.00%     54.14% # Number of instructions issued per FU type, per thread (Count)
system.cpu.statIssuedInstType_0::SimdSha256Hash2            0      0.00%     54.14% # Number of instructions issued per FU type, per thread (Count)
system.cpu.statIssuedInstType_0::SimdShaSigma2            0      0.00%     54.14% # Number of instructions issued per FU type, per thread (Count)
system.cpu.statIssuedInstType_0::SimdShaSigma3            0      0.00%     54.14% # Number of instructions issued per FU type, per thread (Count)
system.cpu.statIssuedInstType_0::SimdPredAlu            0      0.00%     54.14% # Number of instructions issued per FU type, per thread (Count)
system.cpu.statIssuedInstType_0::MemRead       342492     40.78%     94.91% # Number of instructions issued per FU type, per thread (Count)
system.cpu.statIssuedInstType_0::MemWrite        42734      5.09%    100.00% # Number of instructions issued per FU type, per thread (Count)
system.cpu.statIssuedInstType_0::FloatMemRead            0      0.00%    100.00% # Number of instructions issued per FU type, per thread (Count)
system.cpu.statIssuedInstType_0::FloatMemWrite            0      0.00%    100.00% # Number of instructions issued per FU type, per thread (Count)
system.cpu.statIssuedInstType_0::IprAccess            0      0.00%    100.00% # Number of instructions issued per FU type, per thread (Count)
system.cpu.statIssuedInstType_0::InstPrefetch            0      0.00%    100.00% # Number of instructions issued per FU type, per thread (Count)
system.cpu.statIssuedInstType_0::total         839937                       # Number of instructions issued per FU type, per thread (Count)
system.cpu.issueRate                         1.556854                       # Inst issue rate ((Count/Cycle))
system.cpu.fuBusy                               31074                       # FU busy when requested (Count)
system.cpu.fuBusyRate                        0.036996                       # FU busy rate (busy events/executed inst) ((Count/Count))
system.cpu.intInstQueueReads                  2208815                       # Number of integer instruction queue reads (Count)
system.cpu.intInstQueueWrites                  875857                       # Number of integer instruction queue writes (Count)
system.cpu.intInstQueueWakeupAccesses          832538                       # Number of integer instruction queue wakeup accesses (Count)
system.cpu.fpInstQueueReads                         0                       # Number of floating instruction queue reads (Count)
system.cpu.fpInstQueueWrites                        0                       # Number of floating instruction queue writes (Count)
system.cpu.fpInstQueueWakeupAccesses                0                       # Number of floating instruction queue wakeup accesses (Count)
system.cpu.vecInstQueueReads                      957                       # Number of vector instruction queue reads (Count)
system.cpu.vecInstQueueWrites                     761                       # Number of vector instruction queue writes (Count)
system.cpu.vecInstQueueWakeupAccesses             380                       # Number of vector instruction queue wakeup accesses (Count)
system.cpu.intAluAccesses                      870524                       # Number of integer alu accesses (Count)
system.cpu.fpAluAccesses                            0                       # Number of floating point alu accesses (Count)
system.cpu.vecAluAccesses                         458                       # Number of vector alu accesses (Count)
system.cpu.numInsts                            838176                       # Number of executed instructions (Count)
system.cpu.numLoadInsts                        341551                       # Number of load instructions executed (Count)
system.cpu.numSquashedInsts                      1761                       # Number of squashed instructions skipped in execute (Count)
system.cpu.numSwp                                   0                       # Number of swp insts executed (Count)
system.cpu.numNop                               33167                       # Number of nop insts executed (Count)
system.cpu.numRefs                             384028                       # Number of memory reference insts executed (Count)
system.cpu.numBranches                         169579                       # Number of branches executed (Count)
system.cpu.numStoreInsts                        42477                       # Number of stores executed (Count)
system.cpu.numRate                           1.553590                       # Inst execution rate ((Count/Cycle))
system.cpu.timesIdled                             525                       # Number of times that the entire CPU went into an idle state and unscheduled itself (Count)
system.cpu.idleCycles                           40947                       # Total number of cycles that the CPU has spent unscheduled due to idling (Cycle)
system.cpu.committedInsts                      808582                       # Number of Instructions Simulated (Count)
system.cpu.committedOps                        817727                       # Number of Ops (including micro ops) Simulated (Count)
system.cpu.cpi                               0.667229                       # CPI: Cycles Per Instruction ((Cycle/Count))
system.cpu.totalCpi                          0.667229                       # CPI: Total CPI of All Threads ((Cycle/Count))
system.cpu.ipc                               1.498737                       # IPC: Instructions Per Cycle ((Count/Cycle))
system.cpu.totalIpc                          1.498737                       # IPC: Total IPC of All Threads ((Count/Cycle))
system.cpu.intRegfileReads                     810801                       # Number of integer regfile reads (Count)
system.cpu.intRegfileWrites                    624743                       # Number of integer regfile writes (Count)
system.cpu.vecRegfileReads                        455                       # number of vector regfile reads (Count)
system.cpu.vecRegfileWrites                       185                       # number of vector regfile writes (Count)
system.cpu.ccRegfileReads                      404112                       # number of cc regfile reads (Count)
system.cpu.ccRegfileWrites                     404172                       # number of cc regfile writes (Count)
system.cpu.miscRegfileReads                   2251787                       # number of misc regfile reads (Count)
system.cpu.miscRegfileWrites                       45                       # number of misc regfile writes (Count)
system.cpu.MemDepUnit__0.insertedLoads         342480                       # Number of loads inserted to the mem dependence unit. (Count)
system.cpu.MemDepUnit__0.insertedStores         43537                       # Number of stores inserted to the mem dependence unit. (Count)
system.cpu.MemDepUnit__0.conflictingLoads        73905                       # Number of conflicting loads. (Count)
system.cpu.MemDepUnit__0.conflictingStores         1803                       # Number of conflicting stores. (Count)
system.cpu.MemDepUnit__1.insertedLoads              0                       # Number of loads inserted to the mem dependence unit. (Count)
system.cpu.MemDepUnit__1.insertedStores             0                       # Number of stores inserted to the mem dependence unit. (Count)
system.cpu.MemDepUnit__1.conflictingLoads            0                       # Number of conflicting loads. (Count)
system.cpu.MemDepUnit__1.conflictingStores            0                       # Number of conflicting stores. (Count)
system.cpu.MemDepUnit__2.insertedLoads              0                       # Number of loads inserted to the mem dependence unit. (Count)
system.cpu.MemDepUnit__2.insertedStores             0                       # Number of stores inserted to the mem dependence unit. (Count)
system.cpu.MemDepUnit__2.conflictingLoads            0                       # Number of conflicting loads. (Count)
system.cpu.MemDepUnit__2.conflictingStores            0                       # Number of conflicting stores. (Count)
system.cpu.MemDepUnit__3.insertedLoads              0                       # Number of loads inserted to the mem dependence unit. (Count)
system.cpu.MemDepUnit__3.insertedStores             0                       # Number of stores inserted to the mem dependence unit. (Count)
system.cpu.MemDepUnit__3.conflictingLoads            0                       # Number of conflicting loads. (Count)
system.cpu.MemDepUnit__3.conflictingStores            0                       # Number of conflicting stores. (Count)
system.cpu.branchPred.lookups                  176299                       # Number of BP lookups (Count)
system.cpu.branchPred.condPredicted            141073                       # Number of conditional branches predicted (Count)
system.cpu.branchPred.condIncorrect              1590                       # Number of conditional branches incorrect (Count)
system.cpu.branchPred.BTBLookups               171593                       # Number of BTB lookups (Count)
system.cpu.branchPred.BTBHits                  170167                       # Number of BTB hits (Count)
system.cpu.branchPred.BTBHitRatio            0.991690                       # BTB Hit Ratio (Ratio)
system.cpu.branchPred.RASUsed                     636                       # Number of times the RAS was used to get a target. (Count)
system.cpu.branchPred.RASIncorrect                  5                       # Number of incorrect RAS predictions. (Count)
system.cpu.branchPred.indirectLookups             199                       # Number of indirect predictor lookups. (Count)
system.cpu.branchPred.indirectHits                  4                       # Number of indirect target hits. (Count)
system.cpu.branchPred.indirectMisses              195                       # Number of indirect misses. (Count)
system.cpu.branchPred.indirectMispredicted           61                       # Number of mispredicted indirect branches. (Count)
system.cpu.commit.commitSquashedInsts           30110                       # The number of squashed insts skipped by commit (Count)
system.cpu.commit.commitNonSpecStalls              60                       # The number of times commit has been forced to stall to communicate backwards (Count)
system.cpu.commit.branchMispredicts              1257                       # The number of times a branch was mispredicted (Count)
system.cpu.commit.numCommittedDist::samples       493883                       # Number of insts commited each cycle (Count)
system.cpu.commit.numCommittedDist::mean     1.721436                       # Number of insts commited each cycle (Count)
system.cpu.commit.numCommittedDist::stdev     2.302073                       # Number of insts commited each cycle (Count)
system.cpu.commit.numCommittedDist::underflows            0      0.00%      0.00% # Number of insts commited each cycle (Count)
system.cpu.commit.numCommittedDist::0          231462     46.87%     46.87% # Number of insts commited each cycle (Count)
system.cpu.commit.numCommittedDist::1           98746     19.99%     66.86% # Number of insts commited each cycle (Count)
system.cpu.commit.numCommittedDist::2           31243      6.33%     73.19% # Number of insts commited each cycle (Count)
system.cpu.commit.numCommittedDist::3            2102      0.43%     73.61% # Number of insts commited each cycle (Count)
system.cpu.commit.numCommittedDist::4           59393     12.03%     85.64% # Number of insts commited each cycle (Count)
system.cpu.commit.numCommittedDist::5           30483      6.17%     91.81% # Number of insts commited each cycle (Count)
system.cpu.commit.numCommittedDist::6             686      0.14%     91.95% # Number of insts commited each cycle (Count)
system.cpu.commit.numCommittedDist::7           29597      5.99%     97.94% # Number of insts commited each cycle (Count)
system.cpu.commit.numCommittedDist::8           10171      2.06%    100.00% # Number of insts commited each cycle (Count)
system.cpu.commit.numCommittedDist::overflows            0      0.00%    100.00% # Number of insts commited each cycle (Count)
system.cpu.commit.numCommittedDist::min_value            0                       # Number of insts commited each cycle (Count)
system.cpu.commit.numCommittedDist::max_value            8                       # Number of insts commited each cycle (Count)
system.cpu.commit.numCommittedDist::total       493883                       # Number of insts commited each cycle (Count)
system.cpu.commit.instsCommitted               841043                       # Number of instructions committed (Count)
system.cpu.commit.opsCommitted                 850188                       # Number of ops (including micro ops) committed (Count)
system.cpu.commit.memRefs                      374117                       # Number of memory references committed (Count)
system.cpu.commit.loads                        333461                       # Number of loads committed (Count)
system.cpu.commit.amos                             14                       # Number of atomic instructions committed (Count)
system.cpu.commit.membars                          18                       # Number of memory barriers committed (Count)
system.cpu.commit.branches                     166795                       # Number of branches committed (Count)
system.cpu.commit.vectorInstructions              275                       # Number of committed Vector instructions. (Count)
system.cpu.commit.floating                          0                       # Number of committed floating point instructions. (Count)
system.cpu.commit.integer                      651930                       # Number of committed integer instructions. (Count)
system.cpu.commit.functionCalls                   226                       # Number of function calls committed. (Count)
system.cpu.commit.committedInstType_0::No_OpClass           26      0.00%      0.00% # Class of committed instruction (Count)
system.cpu.commit.committedInstType_0::IntAlu       475919     55.98%     55.98% # Class of committed instruction (Count)
system.cpu.commit.committedInstType_0::IntMult            8      0.00%     55.98% # Class of committed instruction (Count)
system.cpu.commit.committedInstType_0::IntDiv            3      0.00%     55.98% # Class of committed instruction (Count)
system.cpu.commit.committedInstType_0::FloatAdd            0      0.00%     55.98% # Class of committed instruction (Count)
system.cpu.commit.committedInstType_0::FloatCmp            0      0.00%     55.98% # Class of committed instruction (Count)
system.cpu.commit.committedInstType_0::FloatCvt            0      0.00%     55.98% # Class of committed instruction (Count)
system.cpu.commit.committedInstType_0::FloatMult            0      0.00%     55.98% # Class of committed instruction (Count)
system.cpu.commit.committedInstType_0::FloatMultAcc            0      0.00%     55.98% # Class of committed instruction (Count)
system.cpu.commit.committedInstType_0::FloatDiv            0      0.00%     55.98% # Class of committed instruction (Count)
system.cpu.commit.committedInstType_0::FloatMisc            0      0.00%     55.98% # Class of committed instruction (Count)
system.cpu.commit.committedInstType_0::FloatSqrt            0      0.00%     55.98% # Class of committed instruction (Count)
system.cpu.commit.committedInstType_0::SimdAdd           23      0.00%     55.99% # Class of committed instruction (Count)
system.cpu.commit.committedInstType_0::SimdAddAcc            0      0.00%     55.99% # Class of committed instruction (Count)
system.cpu.commit.committedInstType_0::SimdAlu           32      0.00%     55.99% # Class of committed instruction (Count)
system.cpu.commit.committedInstType_0::SimdCmp           32      0.00%     55.99% # Class of committed instruction (Count)
system.cpu.commit.committedInstType_0::SimdCvt            0      0.00%     55.99% # Class of committed instruction (Count)
system.cpu.commit.committedInstType_0::SimdMisc           28      0.00%     56.00% # Class of committed instruction (Count)
system.cpu.commit.committedInstType_0::SimdMult            0      0.00%     56.00% # Class of committed instruction (Count)
system.cpu.commit.committedInstType_0::SimdMultAcc            0      0.00%     56.00% # Class of committed instruction (Count)
system.cpu.commit.committedInstType_0::SimdShift            0      0.00%     56.00% # Class of committed instruction (Count)
system.cpu.commit.committedInstType_0::SimdShiftAcc            0      0.00%     56.00% # Class of committed instruction (Count)
system.cpu.commit.committedInstType_0::SimdDiv            0      0.00%     56.00% # Class of committed instruction (Count)
system.cpu.commit.committedInstType_0::SimdSqrt            0      0.00%     56.00% # Class of committed instruction (Count)
system.cpu.commit.committedInstType_0::SimdFloatAdd            0      0.00%     56.00% # Class of committed instruction (Count)
system.cpu.commit.committedInstType_0::SimdFloatAlu            0      0.00%     56.00% # Class of committed instruction (Count)
system.cpu.commit.committedInstType_0::SimdFloatCmp            0      0.00%     56.00% # Class of committed instruction (Count)
system.cpu.commit.committedInstType_0::SimdFloatCvt            0      0.00%     56.00% # Class of committed instruction (Count)
system.cpu.commit.committedInstType_0::SimdFloatDiv            0      0.00%     56.00% # Class of committed instruction (Count)
system.cpu.commit.committedInstType_0::SimdFloatMisc            0      0.00%     56.00% # Class of committed instruction (Count)
system.cpu.commit.committedInstType_0::SimdFloatMult            0      0.00%     56.00% # Class of committed instruction (Count)
system.cpu.commit.committedInstType_0::SimdFloatMultAcc            0      0.00%     56.00% # Class of committed instruction (Count)
system.cpu.commit.committedInstType_0::SimdFloatSqrt            0      0.00%     56.00% # Class of committed instruction (Count)
system.cpu.commit.committedInstType_0::SimdReduceAdd            0      0.00%     56.00% # Class of committed instruction (Count)
system.cpu.commit.committedInstType_0::SimdReduceAlu            0      0.00%     56.00% # Class of committed instruction (Count)
system.cpu.commit.committedInstType_0::SimdReduceCmp            0      0.00%     56.00% # Class of committed instruction (Count)
system.cpu.commit.committedInstType_0::SimdFloatReduceAdd            0      0.00%     56.00% # Class of committed instruction (Count)
system.cpu.commit.committedInstType_0::SimdFloatReduceCmp            0      0.00%     56.00% # Class of committed instruction (Count)
system.cpu.commit.committedInstType_0::SimdAes            0      0.00%     56.00% # Class of committed instruction (Count)
system.cpu.commit.committedInstType_0::SimdAesMix            0      0.00%     56.00% # Class of committed instruction (Count)
system.cpu.commit.committedInstType_0::SimdSha1Hash            0      0.00%     56.00% # Class of committed instruction (Count)
system.cpu.commit.committedInstType_0::SimdSha1Hash2            0      0.00%     56.00% # Class of committed instruction (Count)
system.cpu.commit.committedInstType_0::SimdSha256Hash            0      0.00%     56.00% # Class of committed instruction (Count)
system.cpu.commit.committedInstType_0::SimdSha256Hash2            0      0.00%     56.00% # Class of committed instruction (Count)
system.cpu.commit.committedInstType_0::SimdShaSigma2            0      0.00%     56.00% # Class of committed instruction (Count)
system.cpu.commit.committedInstType_0::SimdShaSigma3            0      0.00%     56.00% # Class of committed instruction (Count)
system.cpu.commit.committedInstType_0::SimdPredAlu            0      0.00%     56.00% # Class of committed instruction (Count)
system.cpu.commit.committedInstType_0::MemRead       333461     39.22%     95.22% # Class of committed instruction (Count)
system.cpu.commit.committedInstType_0::MemWrite        40656      4.78%    100.00% # Class of committed instruction (Count)
system.cpu.commit.committedInstType_0::FloatMemRead            0      0.00%    100.00% # Class of committed instruction (Count)
system.cpu.commit.committedInstType_0::FloatMemWrite            0      0.00%    100.00% # Class of committed instruction (Count)
system.cpu.commit.committedInstType_0::IprAccess            0      0.00%    100.00% # Class of committed instruction (Count)
system.cpu.commit.committedInstType_0::InstPrefetch            0      0.00%    100.00% # Class of committed instruction (Count)
system.cpu.commit.committedInstType_0::total       850188                       # Class of committed instruction (Count)
system.cpu.commit.commitEligibleSamples         10171                       # number cycles where commit BW limit reached (Cycle)
system.cpu.dcache.demandHits::cpu.data         297913                       # number of demand (read+write) hits (Count)
system.cpu.dcache.demandHits::total            297913                       # number of demand (read+write) hits (Count)
system.cpu.dcache.overallHits::cpu.data        297917                       # number of overall hits (Count)
system.cpu.dcache.overallHits::total           297917                       # number of overall hits (Count)
system.cpu.dcache.demandMisses::cpu.data        11045                       # number of demand (read+write) misses (Count)
system.cpu.dcache.demandMisses::total           11045                       # number of demand (read+write) misses (Count)
system.cpu.dcache.overallMisses::cpu.data        11049                       # number of overall misses (Count)
system.cpu.dcache.overallMisses::total          11049                       # number of overall misses (Count)
system.cpu.dcache.demandMissLatency::cpu.data    585112502                       # number of demand (read+write) miss ticks (Tick)
system.cpu.dcache.demandMissLatency::total    585112502                       # number of demand (read+write) miss ticks (Tick)
system.cpu.dcache.overallMissLatency::cpu.data    585112502                       # number of overall miss ticks (Tick)
system.cpu.dcache.overallMissLatency::total    585112502                       # number of overall miss ticks (Tick)
system.cpu.dcache.demandAccesses::cpu.data       308958                       # number of demand (read+write) accesses (Count)
system.cpu.dcache.demandAccesses::total        308958                       # number of demand (read+write) accesses (Count)
system.cpu.dcache.overallAccesses::cpu.data       308966                       # number of overall (read+write) accesses (Count)
system.cpu.dcache.overallAccesses::total       308966                       # number of overall (read+write) accesses (Count)
system.cpu.dcache.demandMissRate::cpu.data     0.035749                       # miss rate for demand accesses (Ratio)
system.cpu.dcache.demandMissRate::total      0.035749                       # miss rate for demand accesses (Ratio)
system.cpu.dcache.overallMissRate::cpu.data     0.035761                       # miss rate for overall accesses (Ratio)
system.cpu.dcache.overallMissRate::total     0.035761                       # miss rate for overall accesses (Ratio)
system.cpu.dcache.demandAvgMissLatency::cpu.data 52975.328384                       # average overall miss latency ((Cycle/Count))
system.cpu.dcache.demandAvgMissLatency::total 52975.328384                       # average overall miss latency ((Cycle/Count))
system.cpu.dcache.overallAvgMissLatency::cpu.data 52956.150059                       # average overall miss latency ((Cycle/Count))
system.cpu.dcache.overallAvgMissLatency::total 52956.150059                       # average overall miss latency ((Cycle/Count))
system.cpu.dcache.blockedCycles::no_mshrs        46489                       # number of cycles access was blocked (Cycle)
system.cpu.dcache.blockedCycles::no_targets            0                       # number of cycles access was blocked (Cycle)
system.cpu.dcache.blockedCauses::no_mshrs         1879                       # number of times access was blocked (Count)
system.cpu.dcache.blockedCauses::no_targets            0                       # number of times access was blocked (Count)
system.cpu.dcache.avgBlocked::no_mshrs      24.741352                       # average number of cycles each access was blocked ((Cycle/Count))
system.cpu.dcache.avgBlocked::no_targets          nan                       # average number of cycles each access was blocked ((Cycle/Count))
system.cpu.dcache.writebacks::writebacks         1810                       # number of writebacks (Count)
system.cpu.dcache.writebacks::total              1810                       # number of writebacks (Count)
system.cpu.dcache.demandMshrHits::cpu.data         7868                       # number of demand (read+write) MSHR hits (Count)
system.cpu.dcache.demandMshrHits::total          7868                       # number of demand (read+write) MSHR hits (Count)
system.cpu.dcache.overallMshrHits::cpu.data         7868                       # number of overall MSHR hits (Count)
system.cpu.dcache.overallMshrHits::total         7868                       # number of overall MSHR hits (Count)
system.cpu.dcache.demandMshrMisses::cpu.data         3177                       # number of demand (read+write) MSHR misses (Count)
system.cpu.dcache.demandMshrMisses::total         3177                       # number of demand (read+write) MSHR misses (Count)
system.cpu.dcache.overallMshrMisses::cpu.data         3181                       # number of overall MSHR misses (Count)
system.cpu.dcache.overallMshrMisses::total         3181                       # number of overall MSHR misses (Count)
system.cpu.dcache.demandMshrMissLatency::cpu.data    163961570                       # number of demand (read+write) MSHR miss ticks (Tick)
system.cpu.dcache.demandMshrMissLatency::total    163961570                       # number of demand (read+write) MSHR miss ticks (Tick)
system.cpu.dcache.overallMshrMissLatency::cpu.data    164261070                       # number of overall MSHR miss ticks (Tick)
system.cpu.dcache.overallMshrMissLatency::total    164261070                       # number of overall MSHR miss ticks (Tick)
system.cpu.dcache.demandMshrMissRate::cpu.data     0.010283                       # mshr miss ratio for demand accesses (Ratio)
system.cpu.dcache.demandMshrMissRate::total     0.010283                       # mshr miss ratio for demand accesses (Ratio)
system.cpu.dcache.overallMshrMissRate::cpu.data     0.010296                       # mshr miss ratio for overall accesses (Ratio)
system.cpu.dcache.overallMshrMissRate::total     0.010296                       # mshr miss ratio for overall accesses (Ratio)
system.cpu.dcache.demandAvgMshrMissLatency::cpu.data 51608.929808                       # average overall mshr miss latency ((Cycle/Count))
system.cpu.dcache.demandAvgMshrMissLatency::total 51608.929808                       # average overall mshr miss latency ((Cycle/Count))
system.cpu.dcache.overallAvgMshrMissLatency::cpu.data 51638.186105                       # average overall mshr miss latency ((Cycle/Count))
system.cpu.dcache.overallAvgMshrMissLatency::total 51638.186105                       # average overall mshr miss latency ((Cycle/Count))
system.cpu.dcache.replacements                   3153                       # number of replacements (Count)
system.cpu.dcache.LoadLockedReq.hits::cpu.data            6                       # number of LoadLockedReq hits (Count)
system.cpu.dcache.LoadLockedReq.hits::total            6                       # number of LoadLockedReq hits (Count)
system.cpu.dcache.LoadLockedReq.misses::cpu.data            4                       # number of LoadLockedReq misses (Count)
system.cpu.dcache.LoadLockedReq.misses::total            4                       # number of LoadLockedReq misses (Count)
system.cpu.dcache.LoadLockedReq.missLatency::cpu.data       185500                       # number of LoadLockedReq miss ticks (Tick)
system.cpu.dcache.LoadLockedReq.missLatency::total       185500                       # number of LoadLockedReq miss ticks (Tick)
system.cpu.dcache.LoadLockedReq.accesses::cpu.data           10                       # number of LoadLockedReq accesses(hits+misses) (Count)
system.cpu.dcache.LoadLockedReq.accesses::total           10                       # number of LoadLockedReq accesses(hits+misses) (Count)
system.cpu.dcache.LoadLockedReq.missRate::cpu.data     0.400000                       # miss rate for LoadLockedReq accesses (Ratio)
system.cpu.dcache.LoadLockedReq.missRate::total     0.400000                       # miss rate for LoadLockedReq accesses (Ratio)
system.cpu.dcache.LoadLockedReq.avgMissLatency::cpu.data        46375                       # average LoadLockedReq miss latency ((Tick/Count))
system.cpu.dcache.LoadLockedReq.avgMissLatency::total        46375                       # average LoadLockedReq miss latency ((Tick/Count))
system.cpu.dcache.LoadLockedReq.mshrHits::cpu.data            2                       # number of LoadLockedReq MSHR hits (Count)
system.cpu.dcache.LoadLockedReq.mshrHits::total            2                       # number of LoadLockedReq MSHR hits (Count)
system.cpu.dcache.LoadLockedReq.mshrMisses::cpu.data            2                       # number of LoadLockedReq MSHR misses (Count)
system.cpu.dcache.LoadLockedReq.mshrMisses::total            2                       # number of LoadLockedReq MSHR misses (Count)
system.cpu.dcache.LoadLockedReq.mshrMissLatency::cpu.data        77500                       # number of LoadLockedReq MSHR miss ticks (Tick)
system.cpu.dcache.LoadLockedReq.mshrMissLatency::total        77500                       # number of LoadLockedReq MSHR miss ticks (Tick)
system.cpu.dcache.LoadLockedReq.mshrMissRate::cpu.data     0.200000                       # mshr miss rate for LoadLockedReq accesses (Ratio)
system.cpu.dcache.LoadLockedReq.mshrMissRate::total     0.200000                       # mshr miss rate for LoadLockedReq accesses (Ratio)
system.cpu.dcache.LoadLockedReq.avgMshrMissLatency::cpu.data        38750                       # average LoadLockedReq mshr miss latency ((Tick/Count))
system.cpu.dcache.LoadLockedReq.avgMshrMissLatency::total        38750                       # average LoadLockedReq mshr miss latency ((Tick/Count))
system.cpu.dcache.ReadReq.hits::cpu.data       263244                       # number of ReadReq hits (Count)
system.cpu.dcache.ReadReq.hits::total          263244                       # number of ReadReq hits (Count)
system.cpu.dcache.ReadReq.misses::cpu.data         5071                       # number of ReadReq misses (Count)
system.cpu.dcache.ReadReq.misses::total          5071                       # number of ReadReq misses (Count)
system.cpu.dcache.ReadReq.missLatency::cpu.data    276019000                       # number of ReadReq miss ticks (Tick)
system.cpu.dcache.ReadReq.missLatency::total    276019000                       # number of ReadReq miss ticks (Tick)
system.cpu.dcache.ReadReq.accesses::cpu.data       268315                       # number of ReadReq accesses(hits+misses) (Count)
system.cpu.dcache.ReadReq.accesses::total       268315                       # number of ReadReq accesses(hits+misses) (Count)
system.cpu.dcache.ReadReq.missRate::cpu.data     0.018899                       # miss rate for ReadReq accesses (Ratio)
system.cpu.dcache.ReadReq.missRate::total     0.018899                       # miss rate for ReadReq accesses (Ratio)
system.cpu.dcache.ReadReq.avgMissLatency::cpu.data 54430.881483                       # average ReadReq miss latency ((Tick/Count))
system.cpu.dcache.ReadReq.avgMissLatency::total 54430.881483                       # average ReadReq miss latency ((Tick/Count))
system.cpu.dcache.ReadReq.mshrHits::cpu.data         3623                       # number of ReadReq MSHR hits (Count)
system.cpu.dcache.ReadReq.mshrHits::total         3623                       # number of ReadReq MSHR hits (Count)
system.cpu.dcache.ReadReq.mshrMisses::cpu.data         1448                       # number of ReadReq MSHR misses (Count)
system.cpu.dcache.ReadReq.mshrMisses::total         1448                       # number of ReadReq MSHR misses (Count)
system.cpu.dcache.ReadReq.mshrMissLatency::cpu.data     93934500                       # number of ReadReq MSHR miss ticks (Tick)
system.cpu.dcache.ReadReq.mshrMissLatency::total     93934500                       # number of ReadReq MSHR miss ticks (Tick)
system.cpu.dcache.ReadReq.mshrMissRate::cpu.data     0.005397                       # mshr miss rate for ReadReq accesses (Ratio)
system.cpu.dcache.ReadReq.mshrMissRate::total     0.005397                       # mshr miss rate for ReadReq accesses (Ratio)
system.cpu.dcache.ReadReq.avgMshrMissLatency::cpu.data 64871.892265                       # average ReadReq mshr miss latency ((Tick/Count))
system.cpu.dcache.ReadReq.avgMshrMissLatency::total 64871.892265                       # average ReadReq mshr miss latency ((Tick/Count))
system.cpu.dcache.SoftPFReq.hits::cpu.data            4                       # number of SoftPFReq hits (Count)
system.cpu.dcache.SoftPFReq.hits::total             4                       # number of SoftPFReq hits (Count)
system.cpu.dcache.SoftPFReq.misses::cpu.data            4                       # number of SoftPFReq misses (Count)
system.cpu.dcache.SoftPFReq.misses::total            4                       # number of SoftPFReq misses (Count)
system.cpu.dcache.SoftPFReq.accesses::cpu.data            8                       # number of SoftPFReq accesses(hits+misses) (Count)
system.cpu.dcache.SoftPFReq.accesses::total            8                       # number of SoftPFReq accesses(hits+misses) (Count)
system.cpu.dcache.SoftPFReq.missRate::cpu.data     0.500000                       # miss rate for SoftPFReq accesses (Ratio)
system.cpu.dcache.SoftPFReq.missRate::total     0.500000                       # miss rate for SoftPFReq accesses (Ratio)
system.cpu.dcache.SoftPFReq.mshrMisses::cpu.data            4                       # number of SoftPFReq MSHR misses (Count)
system.cpu.dcache.SoftPFReq.mshrMisses::total            4                       # number of SoftPFReq MSHR misses (Count)
system.cpu.dcache.SoftPFReq.mshrMissLatency::cpu.data       299500                       # number of SoftPFReq MSHR miss ticks (Tick)
system.cpu.dcache.SoftPFReq.mshrMissLatency::total       299500                       # number of SoftPFReq MSHR miss ticks (Tick)
system.cpu.dcache.SoftPFReq.mshrMissRate::cpu.data     0.500000                       # mshr miss rate for SoftPFReq accesses (Ratio)
system.cpu.dcache.SoftPFReq.mshrMissRate::total     0.500000                       # mshr miss rate for SoftPFReq accesses (Ratio)
system.cpu.dcache.SoftPFReq.avgMshrMissLatency::cpu.data        74875                       # average SoftPFReq mshr miss latency ((Tick/Count))
system.cpu.dcache.SoftPFReq.avgMshrMissLatency::total        74875                       # average SoftPFReq mshr miss latency ((Tick/Count))
system.cpu.dcache.StoreCondReq.hits::cpu.data            4                       # number of StoreCondReq hits (Count)
system.cpu.dcache.StoreCondReq.hits::total            4                       # number of StoreCondReq hits (Count)
system.cpu.dcache.StoreCondReq.accesses::cpu.data            4                       # number of StoreCondReq accesses(hits+misses) (Count)
system.cpu.dcache.StoreCondReq.accesses::total            4                       # number of StoreCondReq accesses(hits+misses) (Count)
system.cpu.dcache.SwapReq.hits::cpu.data           12                       # number of SwapReq hits (Count)
system.cpu.dcache.SwapReq.hits::total              12                       # number of SwapReq hits (Count)
system.cpu.dcache.SwapReq.misses::cpu.data            2                       # number of SwapReq misses (Count)
system.cpu.dcache.SwapReq.misses::total             2                       # number of SwapReq misses (Count)
system.cpu.dcache.SwapReq.missLatency::cpu.data       191500                       # number of SwapReq miss ticks (Tick)
system.cpu.dcache.SwapReq.missLatency::total       191500                       # number of SwapReq miss ticks (Tick)
system.cpu.dcache.SwapReq.accesses::cpu.data           14                       # number of SwapReq accesses(hits+misses) (Count)
system.cpu.dcache.SwapReq.accesses::total           14                       # number of SwapReq accesses(hits+misses) (Count)
system.cpu.dcache.SwapReq.missRate::cpu.data     0.142857                       # miss rate for SwapReq accesses (Ratio)
system.cpu.dcache.SwapReq.missRate::total     0.142857                       # miss rate for SwapReq accesses (Ratio)
system.cpu.dcache.SwapReq.avgMissLatency::cpu.data        95750                       # average SwapReq miss latency ((Tick/Count))
system.cpu.dcache.SwapReq.avgMissLatency::total        95750                       # average SwapReq miss latency ((Tick/Count))
system.cpu.dcache.SwapReq.mshrMisses::cpu.data            2                       # number of SwapReq MSHR misses (Count)
system.cpu.dcache.SwapReq.mshrMisses::total            2                       # number of SwapReq MSHR misses (Count)
system.cpu.dcache.SwapReq.mshrMissLatency::cpu.data       189500                       # number of SwapReq MSHR miss ticks (Tick)
system.cpu.dcache.SwapReq.mshrMissLatency::total       189500                       # number of SwapReq MSHR miss ticks (Tick)
system.cpu.dcache.SwapReq.mshrMissRate::cpu.data     0.142857                       # mshr miss rate for SwapReq accesses (Ratio)
system.cpu.dcache.SwapReq.mshrMissRate::total     0.142857                       # mshr miss rate for SwapReq accesses (Ratio)
system.cpu.dcache.SwapReq.avgMshrMissLatency::cpu.data        94750                       # average SwapReq mshr miss latency ((Tick/Count))
system.cpu.dcache.SwapReq.avgMshrMissLatency::total        94750                       # average SwapReq mshr miss latency ((Tick/Count))
system.cpu.dcache.WriteLineReq.misses::cpu.data         1015                       # number of WriteLineReq misses (Count)
system.cpu.dcache.WriteLineReq.misses::total         1015                       # number of WriteLineReq misses (Count)
system.cpu.dcache.WriteLineReq.missLatency::cpu.data     20150251                       # number of WriteLineReq miss ticks (Tick)
system.cpu.dcache.WriteLineReq.missLatency::total     20150251                       # number of WriteLineReq miss ticks (Tick)
system.cpu.dcache.WriteLineReq.accesses::cpu.data         1015                       # number of WriteLineReq accesses(hits+misses) (Count)
system.cpu.dcache.WriteLineReq.accesses::total         1015                       # number of WriteLineReq accesses(hits+misses) (Count)
system.cpu.dcache.WriteLineReq.missRate::cpu.data            1                       # miss rate for WriteLineReq accesses (Ratio)
system.cpu.dcache.WriteLineReq.missRate::total            1                       # miss rate for WriteLineReq accesses (Ratio)
system.cpu.dcache.WriteLineReq.avgMissLatency::cpu.data 19852.464039                       # average WriteLineReq miss latency ((Tick/Count))
system.cpu.dcache.WriteLineReq.avgMissLatency::total 19852.464039                       # average WriteLineReq miss latency ((Tick/Count))
system.cpu.dcache.WriteLineReq.mshrMisses::cpu.data         1015                       # number of WriteLineReq MSHR misses (Count)
system.cpu.dcache.WriteLineReq.mshrMisses::total         1015                       # number of WriteLineReq MSHR misses (Count)
system.cpu.dcache.WriteLineReq.mshrMissLatency::cpu.data     19135251                       # number of WriteLineReq MSHR miss ticks (Tick)
system.cpu.dcache.WriteLineReq.mshrMissLatency::total     19135251                       # number of WriteLineReq MSHR miss ticks (Tick)
system.cpu.dcache.WriteLineReq.mshrMissRate::cpu.data            1                       # mshr miss rate for WriteLineReq accesses (Ratio)
system.cpu.dcache.WriteLineReq.mshrMissRate::total            1                       # mshr miss rate for WriteLineReq accesses (Ratio)
system.cpu.dcache.WriteLineReq.avgMshrMissLatency::cpu.data 18852.464039                       # average WriteLineReq mshr miss latency ((Tick/Count))
system.cpu.dcache.WriteLineReq.avgMshrMissLatency::total 18852.464039                       # average WriteLineReq mshr miss latency ((Tick/Count))
system.cpu.dcache.WriteReq.hits::cpu.data        34669                       # number of WriteReq hits (Count)
system.cpu.dcache.WriteReq.hits::total          34669                       # number of WriteReq hits (Count)
system.cpu.dcache.WriteReq.misses::cpu.data         4959                       # number of WriteReq misses (Count)
system.cpu.dcache.WriteReq.misses::total         4959                       # number of WriteReq misses (Count)
system.cpu.dcache.WriteReq.missLatency::cpu.data    288943251                       # number of WriteReq miss ticks (Tick)
system.cpu.dcache.WriteReq.missLatency::total    288943251                       # number of WriteReq miss ticks (Tick)
system.cpu.dcache.WriteReq.accesses::cpu.data        39628                       # number of WriteReq accesses(hits+misses) (Count)
system.cpu.dcache.WriteReq.accesses::total        39628                       # number of WriteReq accesses(hits+misses) (Count)
system.cpu.dcache.WriteReq.missRate::cpu.data     0.125139                       # miss rate for WriteReq accesses (Ratio)
system.cpu.dcache.WriteReq.missRate::total     0.125139                       # miss rate for WriteReq accesses (Ratio)
system.cpu.dcache.WriteReq.avgMissLatency::cpu.data 58266.434967                       # average WriteReq miss latency ((Tick/Count))
system.cpu.dcache.WriteReq.avgMissLatency::total 58266.434967                       # average WriteReq miss latency ((Tick/Count))
system.cpu.dcache.WriteReq.mshrHits::cpu.data         4245                       # number of WriteReq MSHR hits (Count)
system.cpu.dcache.WriteReq.mshrHits::total         4245                       # number of WriteReq MSHR hits (Count)
system.cpu.dcache.WriteReq.mshrMisses::cpu.data          714                       # number of WriteReq MSHR misses (Count)
system.cpu.dcache.WriteReq.mshrMisses::total          714                       # number of WriteReq MSHR misses (Count)
system.cpu.dcache.WriteReq.mshrMissLatency::cpu.data     50891819                       # number of WriteReq MSHR miss ticks (Tick)
system.cpu.dcache.WriteReq.mshrMissLatency::total     50891819                       # number of WriteReq MSHR miss ticks (Tick)
system.cpu.dcache.WriteReq.mshrMissRate::cpu.data     0.018018                       # mshr miss rate for WriteReq accesses (Ratio)
system.cpu.dcache.WriteReq.mshrMissRate::total     0.018018                       # mshr miss rate for WriteReq accesses (Ratio)
system.cpu.dcache.WriteReq.avgMshrMissLatency::cpu.data 71277.057423                       # average WriteReq mshr miss latency ((Tick/Count))
system.cpu.dcache.WriteReq.avgMshrMissLatency::total 71277.057423                       # average WriteReq mshr miss latency ((Tick/Count))
system.cpu.dcache.power_state.pwrStateResidencyTicks::UNDEFINED    269754000                       # Cumulative time (in ticks) in various power states (Tick)
system.cpu.dcache.tags.tagsInUse            31.822194                       # Average ticks per tags in use ((Tick/Count))
system.cpu.dcache.tags.totalRefs               301124                       # Total number of references to valid blocks. (Count)
system.cpu.dcache.tags.sampledRefs               3185                       # Sample count of references to valid blocks. (Count)
system.cpu.dcache.tags.avgRefs              94.544427                       # Average number of references to valid blocks. ((Count/Count))
system.cpu.dcache.tags.warmupTick              145000                       # The tick when the warmup percentage was hit. (Tick)
system.cpu.dcache.tags.occupancies::cpu.data    31.822194                       # Average occupied blocks per tick, per requestor ((Count/Tick))
system.cpu.dcache.tags.avgOccs::cpu.data     0.994444                       # Average percentage of cache occupancy ((Ratio/Tick))
system.cpu.dcache.tags.avgOccs::total        0.994444                       # Average percentage of cache occupancy ((Ratio/Tick))
system.cpu.dcache.tags.occupanciesTaskId::1024           32                       # Occupied blocks per task id (Count)
system.cpu.dcache.tags.ageTaskId_1024::0           31                       # Occupied blocks per task id, per block age (Count)
system.cpu.dcache.tags.ageTaskId_1024::1            1                       # Occupied blocks per task id, per block age (Count)
system.cpu.dcache.tags.ratioOccsTaskId::1024            1                       # Ratio of occupied blocks and all blocks, per task id (Ratio)
system.cpu.dcache.tags.tagAccesses             621173                       # Number of tag accesses (Count)
system.cpu.dcache.tags.dataAccesses            621173                       # Number of data accesses (Count)
system.cpu.dcache.tags.power_state.pwrStateResidencyTicks::UNDEFINED    269754000                       # Cumulative time (in ticks) in various power states (Tick)
system.cpu.decode.idleCycles                   147112                       # Number of cycles decode is idle (Cycle)
system.cpu.decode.blockedCycles                113765                       # Number of cycles decode is blocked (Cycle)
system.cpu.decode.runCycles                    232454                       # Number of cycles decode is running (Cycle)
system.cpu.decode.unblockCycles                  3874                       # Number of cycles decode is unblocking (Cycle)
system.cpu.decode.squashCycles                   1357                       # Number of cycles decode is squashing (Cycle)
system.cpu.decode.branchResolved               169592                       # Number of times decode resolved a branch (Count)
system.cpu.decode.branchMispred                   342                       # Number of times decode detected a branch misprediction (Count)
system.cpu.decode.decodedInsts                 889979                       # Number of instructions handled by decode (Count)
system.cpu.decode.squashedInsts                  1138                       # Number of squashed instructions handled by decode (Count)
system.cpu.fetch.icacheStallCycles             156360                       # Number of cycles fetch is stalled on an Icache miss (Cycle)
system.cpu.fetch.insts                         889522                       # Number of instructions fetch has processed (Count)
system.cpu.fetch.branches                      176299                       # Number of branches that fetch encountered (Count)
system.cpu.fetch.predictedBranches             170807                       # Number of branches that fetch has predicted taken (Count)
system.cpu.fetch.cycles                        340512                       # Number of cycles fetch has run and was not squashing or blocked (Cycle)
system.cpu.fetch.squashCycles                    3380                       # Number of cycles fetch has spent squashing (Cycle)
system.cpu.fetch.cacheLines                    139995                       # Number of cache lines fetched (Count)
system.cpu.fetch.icacheSquashes                  1155                       # Number of outstanding Icache misses that were squashed (Count)
system.cpu.fetch.nisnDist::samples             498562                       # Number of instructions fetched each cycle (Total) (Count)
system.cpu.fetch.nisnDist::mean              1.808543                       # Number of instructions fetched each cycle (Total) (Count)
system.cpu.fetch.nisnDist::stdev             2.347585                       # Number of instructions fetched each cycle (Total) (Count)
system.cpu.fetch.nisnDist::underflows               0      0.00%      0.00% # Number of instructions fetched each cycle (Total) (Count)
system.cpu.fetch.nisnDist::0                   253911     50.93%     50.93% # Number of instructions fetched each cycle (Total) (Count)
system.cpu.fetch.nisnDist::1                    34090      6.84%     57.77% # Number of instructions fetched each cycle (Total) (Count)
system.cpu.fetch.nisnDist::2                    66992     13.44%     71.20% # Number of instructions fetched each cycle (Total) (Count)
system.cpu.fetch.nisnDist::3                    34120      6.84%     78.05% # Number of instructions fetched each cycle (Total) (Count)
system.cpu.fetch.nisnDist::4                     2651      0.53%     78.58% # Number of instructions fetched each cycle (Total) (Count)
system.cpu.fetch.nisnDist::5                    66024     13.24%     91.82% # Number of instructions fetched each cycle (Total) (Count)
system.cpu.fetch.nisnDist::6                      927      0.19%     92.01% # Number of instructions fetched each cycle (Total) (Count)
system.cpu.fetch.nisnDist::7                    33825      6.78%     98.79% # Number of instructions fetched each cycle (Total) (Count)
system.cpu.fetch.nisnDist::8                     6022      1.21%    100.00% # Number of instructions fetched each cycle (Total) (Count)
system.cpu.fetch.nisnDist::overflows                0      0.00%    100.00% # Number of instructions fetched each cycle (Total) (Count)
system.cpu.fetch.nisnDist::min_value                0                       # Number of instructions fetched each cycle (Total) (Count)
system.cpu.fetch.nisnDist::max_value                8                       # Number of instructions fetched each cycle (Total) (Count)
system.cpu.fetch.nisnDist::total               498562                       # Number of instructions fetched each cycle (Total) (Count)
system.cpu.fetch.branchRate                  0.326777                       # Number of branch fetches per cycle (Ratio)
system.cpu.fetch.rate                        1.648762                       # Number of inst fetches per cycle ((Count/Cycle))
system.cpu.icache.demandHits::cpu.inst         139107                       # number of demand (read+write) hits (Count)
system.cpu.icache.demandHits::total            139107                       # number of demand (read+write) hits (Count)
system.cpu.icache.overallHits::cpu.inst        139107                       # number of overall hits (Count)
system.cpu.icache.overallHits::total           139107                       # number of overall hits (Count)
system.cpu.icache.demandMisses::cpu.inst          888                       # number of demand (read+write) misses (Count)
system.cpu.icache.demandMisses::total             888                       # number of demand (read+write) misses (Count)
system.cpu.icache.overallMisses::cpu.inst          888                       # number of overall misses (Count)
system.cpu.icache.overallMisses::total            888                       # number of overall misses (Count)
system.cpu.icache.demandMissLatency::cpu.inst     54446500                       # number of demand (read+write) miss ticks (Tick)
system.cpu.icache.demandMissLatency::total     54446500                       # number of demand (read+write) miss ticks (Tick)
system.cpu.icache.overallMissLatency::cpu.inst     54446500                       # number of overall miss ticks (Tick)
system.cpu.icache.overallMissLatency::total     54446500                       # number of overall miss ticks (Tick)
system.cpu.icache.demandAccesses::cpu.inst       139995                       # number of demand (read+write) accesses (Count)
system.cpu.icache.demandAccesses::total        139995                       # number of demand (read+write) accesses (Count)
system.cpu.icache.overallAccesses::cpu.inst       139995                       # number of overall (read+write) accesses (Count)
system.cpu.icache.overallAccesses::total       139995                       # number of overall (read+write) accesses (Count)
system.cpu.icache.demandMissRate::cpu.inst     0.006343                       # miss rate for demand accesses (Ratio)
system.cpu.icache.demandMissRate::total      0.006343                       # miss rate for demand accesses (Ratio)
system.cpu.icache.overallMissRate::cpu.inst     0.006343                       # miss rate for overall accesses (Ratio)
system.cpu.icache.overallMissRate::total     0.006343                       # miss rate for overall accesses (Ratio)
system.cpu.icache.demandAvgMissLatency::cpu.inst 61313.626126                       # average overall miss latency ((Cycle/Count))
system.cpu.icache.demandAvgMissLatency::total 61313.626126                       # average overall miss latency ((Cycle/Count))
system.cpu.icache.overallAvgMissLatency::cpu.inst 61313.626126                       # average overall miss latency ((Cycle/Count))
system.cpu.icache.overallAvgMissLatency::total 61313.626126                       # average overall miss latency ((Cycle/Count))
system.cpu.icache.blockedCycles::no_mshrs          366                       # number of cycles access was blocked (Cycle)
system.cpu.icache.blockedCycles::no_targets            0                       # number of cycles access was blocked (Cycle)
system.cpu.icache.blockedCauses::no_mshrs            6                       # number of times access was blocked (Count)
system.cpu.icache.blockedCauses::no_targets            0                       # number of times access was blocked (Count)
system.cpu.icache.avgBlocked::no_mshrs             61                       # average number of cycles each access was blocked ((Cycle/Count))
system.cpu.icache.avgBlocked::no_targets          nan                       # average number of cycles each access was blocked ((Cycle/Count))
system.cpu.icache.writebacks::writebacks          222                       # number of writebacks (Count)
system.cpu.icache.writebacks::total               222                       # number of writebacks (Count)
system.cpu.icache.demandMshrHits::cpu.inst          220                       # number of demand (read+write) MSHR hits (Count)
system.cpu.icache.demandMshrHits::total           220                       # number of demand (read+write) MSHR hits (Count)
system.cpu.icache.overallMshrHits::cpu.inst          220                       # number of overall MSHR hits (Count)
system.cpu.icache.overallMshrHits::total          220                       # number of overall MSHR hits (Count)
system.cpu.icache.demandMshrMisses::cpu.inst          668                       # number of demand (read+write) MSHR misses (Count)
system.cpu.icache.demandMshrMisses::total          668                       # number of demand (read+write) MSHR misses (Count)
system.cpu.icache.overallMshrMisses::cpu.inst          668                       # number of overall MSHR misses (Count)
system.cpu.icache.overallMshrMisses::total          668                       # number of overall MSHR misses (Count)
system.cpu.icache.demandMshrMissLatency::cpu.inst     43912000                       # number of demand (read+write) MSHR miss ticks (Tick)
system.cpu.icache.demandMshrMissLatency::total     43912000                       # number of demand (read+write) MSHR miss ticks (Tick)
system.cpu.icache.overallMshrMissLatency::cpu.inst     43912000                       # number of overall MSHR miss ticks (Tick)
system.cpu.icache.overallMshrMissLatency::total     43912000                       # number of overall MSHR miss ticks (Tick)
system.cpu.icache.demandMshrMissRate::cpu.inst     0.004772                       # mshr miss ratio for demand accesses (Ratio)
system.cpu.icache.demandMshrMissRate::total     0.004772                       # mshr miss ratio for demand accesses (Ratio)
system.cpu.icache.overallMshrMissRate::cpu.inst     0.004772                       # mshr miss ratio for overall accesses (Ratio)
system.cpu.icache.overallMshrMissRate::total     0.004772                       # mshr miss ratio for overall accesses (Ratio)
system.cpu.icache.demandAvgMshrMissLatency::cpu.inst 65736.526946                       # average overall mshr miss latency ((Cycle/Count))
system.cpu.icache.demandAvgMshrMissLatency::total 65736.526946                       # average overall mshr miss latency ((Cycle/Count))
system.cpu.icache.overallAvgMshrMissLatency::cpu.inst 65736.526946                       # average overall mshr miss latency ((Cycle/Count))
system.cpu.icache.overallAvgMshrMissLatency::total 65736.526946                       # average overall mshr miss latency ((Cycle/Count))
system.cpu.icache.replacements                    222                       # number of replacements (Count)
system.cpu.icache.ReadReq.hits::cpu.inst       139107                       # number of ReadReq hits (Count)
system.cpu.icache.ReadReq.hits::total          139107                       # number of ReadReq hits (Count)
system.cpu.icache.ReadReq.misses::cpu.inst          888                       # number of ReadReq misses (Count)
system.cpu.icache.ReadReq.misses::total           888                       # number of ReadReq misses (Count)
system.cpu.icache.ReadReq.missLatency::cpu.inst     54446500                       # number of ReadReq miss ticks (Tick)
system.cpu.icache.ReadReq.missLatency::total     54446500                       # number of ReadReq miss ticks (Tick)
system.cpu.icache.ReadReq.accesses::cpu.inst       139995                       # number of ReadReq accesses(hits+misses) (Count)
system.cpu.icache.ReadReq.accesses::total       139995                       # number of ReadReq accesses(hits+misses) (Count)
system.cpu.icache.ReadReq.missRate::cpu.inst     0.006343                       # miss rate for ReadReq accesses (Ratio)
system.cpu.icache.ReadReq.missRate::total     0.006343                       # miss rate for ReadReq accesses (Ratio)
system.cpu.icache.ReadReq.avgMissLatency::cpu.inst 61313.626126                       # average ReadReq miss latency ((Tick/Count))
system.cpu.icache.ReadReq.avgMissLatency::total 61313.626126                       # average ReadReq miss latency ((Tick/Count))
system.cpu.icache.ReadReq.mshrHits::cpu.inst          220                       # number of ReadReq MSHR hits (Count)
system.cpu.icache.ReadReq.mshrHits::total          220                       # number of ReadReq MSHR hits (Count)
system.cpu.icache.ReadReq.mshrMisses::cpu.inst          668                       # number of ReadReq MSHR misses (Count)
system.cpu.icache.ReadReq.mshrMisses::total          668                       # number of ReadReq MSHR misses (Count)
system.cpu.icache.ReadReq.mshrMissLatency::cpu.inst     43912000                       # number of ReadReq MSHR miss ticks (Tick)
system.cpu.icache.ReadReq.mshrMissLatency::total     43912000                       # number of ReadReq MSHR miss ticks (Tick)
system.cpu.icache.ReadReq.mshrMissRate::cpu.inst     0.004772                       # mshr miss rate for ReadReq accesses (Ratio)
system.cpu.icache.ReadReq.mshrMissRate::total     0.004772                       # mshr miss rate for ReadReq accesses (Ratio)
system.cpu.icache.ReadReq.avgMshrMissLatency::cpu.inst 65736.526946                       # average ReadReq mshr miss latency ((Tick/Count))
system.cpu.icache.ReadReq.avgMshrMissLatency::total 65736.526946                       # average ReadReq mshr miss latency ((Tick/Count))
system.cpu.icache.power_state.pwrStateResidencyTicks::UNDEFINED    269754000                       # Cumulative time (in ticks) in various power states (Tick)
system.cpu.icache.tags.tagsInUse           325.530284                       # Average ticks per tags in use ((Tick/Count))
system.cpu.icache.tags.totalRefs               139775                       # Total number of references to valid blocks. (Count)
system.cpu.icache.tags.sampledRefs                668                       # Sample count of references to valid blocks. (Count)
system.cpu.icache.tags.avgRefs             209.244012                       # Average number of references to valid blocks. ((Count/Count))
system.cpu.icache.tags.warmupTick               77000                       # The tick when the warmup percentage was hit. (Tick)
system.cpu.icache.tags.occupancies::cpu.inst   325.530284                       # Average occupied blocks per tick, per requestor ((Count/Tick))
system.cpu.icache.tags.avgOccs::cpu.inst     0.635801                       # Average percentage of cache occupancy ((Ratio/Tick))
system.cpu.icache.tags.avgOccs::total        0.635801                       # Average percentage of cache occupancy ((Ratio/Tick))
system.cpu.icache.tags.occupanciesTaskId::1024          446                       # Occupied blocks per task id (Count)
system.cpu.icache.tags.ageTaskId_1024::0          152                       # Occupied blocks per task id, per block age (Count)
system.cpu.icache.tags.ageTaskId_1024::1           93                       # Occupied blocks per task id, per block age (Count)
system.cpu.icache.tags.ageTaskId_1024::2          201                       # Occupied blocks per task id, per block age (Count)
system.cpu.icache.tags.ratioOccsTaskId::1024     0.871094                       # Ratio of occupied blocks and all blocks, per task id (Ratio)
system.cpu.icache.tags.tagAccesses             280658                       # Number of tag accesses (Count)
system.cpu.icache.tags.dataAccesses            280658                       # Number of data accesses (Count)
system.cpu.icache.tags.power_state.pwrStateResidencyTicks::UNDEFINED    269754000                       # Cumulative time (in ticks) in various power states (Tick)
system.cpu.iew.idleCycles                           0                       # Number of cycles IEW is idle (Cycle)
system.cpu.iew.squashCycles                      1357                       # Number of cycles IEW is squashing (Cycle)
system.cpu.iew.blockCycles                       3674                       # Number of cycles IEW is blocking (Cycle)
[...]
system.mem_ctrls.dram.bwRead::cpu.inst      158485138                       # Total read bandwidth from this memory ((Byte/Second))
system.mem_ctrls.dram.bwRead::cpu.data      505349318                       # Total read bandwidth from this memory ((Byte/Second))
system.mem_ctrls.dram.bwRead::total         663834457                       # Total read bandwidth from this memory ((Byte/Second))
system.mem_ctrls.dram.bwInstRead::cpu.inst    158485138                       # Instruction read bandwidth from this memory ((Byte/Second))
system.mem_ctrls.dram.bwInstRead::total     158485138                       # Instruction read bandwidth from this memory ((Byte/Second))
system.mem_ctrls.dram.bwWrite::writebacks    429428294                       # Write bandwidth from this memory ((Byte/Second))
system.mem_ctrls.dram.bwWrite::total        429428294                       # Write bandwidth from this memory ((Byte/Second))
system.mem_ctrls.dram.bwTotal::writebacks    429428294                       # Total bandwidth to/from this memory ((Byte/Second))
system.mem_ctrls.dram.bwTotal::cpu.inst     158485138                       # Total bandwidth to/from this memory ((Byte/Second))
system.mem_ctrls.dram.bwTotal::cpu.data     505349318                       # Total bandwidth to/from this memory ((Byte/Second))
system.mem_ctrls.dram.bwTotal::total       1093262751                       # Total bandwidth to/from this memory ((Byte/Second))
system.mem_ctrls.dram.readBursts                 2703                       # Number of DRAM read bursts (Count)
system.mem_ctrls.dram.writeBursts                1983                       # Number of DRAM write bursts (Count)
system.mem_ctrls.dram.perBankRdBursts::0          181                       # Per bank write bursts (Count)
system.mem_ctrls.dram.perBankRdBursts::1          250                       # Per bank write bursts (Count)
system.mem_ctrls.dram.perBankRdBursts::2          221                       # Per bank write bursts (Count)
system.mem_ctrls.dram.perBankRdBursts::3           75                       # Per bank write bursts (Count)
system.mem_ctrls.dram.perBankRdBursts::4          276                       # Per bank write bursts (Count)
system.mem_ctrls.dram.perBankRdBursts::5          279                       # Per bank write bursts (Count)
system.mem_ctrls.dram.perBankRdBursts::6          254                       # Per bank write bursts (Count)
system.mem_ctrls.dram.perBankRdBursts::7          251                       # Per bank write bursts (Count)
system.mem_ctrls.dram.perBankRdBursts::8          153                       # Per bank write bursts (Count)
system.mem_ctrls.dram.perBankRdBursts::9          161                       # Per bank write bursts (Count)
system.mem_ctrls.dram.perBankRdBursts::10          153                       # Per bank write bursts (Count)
system.mem_ctrls.dram.perBankRdBursts::11          162                       # Per bank write bursts (Count)
system.mem_ctrls.dram.perBankRdBursts::12          106                       # Per bank write bursts (Count)
system.mem_ctrls.dram.perBankRdBursts::13           43                       # Per bank write bursts (Count)
system.mem_ctrls.dram.perBankRdBursts::14           33                       # Per bank write bursts (Count)
system.mem_ctrls.dram.perBankRdBursts::15          105                       # Per bank write bursts (Count)
system.mem_ctrls.dram.perBankWrBursts::0           13                       # Per bank write bursts (Count)
system.mem_ctrls.dram.perBankWrBursts::1          109                       # Per bank write bursts (Count)
system.mem_ctrls.dram.perBankWrBursts::2          157                       # Per bank write bursts (Count)
system.mem_ctrls.dram.perBankWrBursts::3           15                       # Per bank write bursts (Count)
system.mem_ctrls.dram.perBankWrBursts::4          245                       # Per bank write bursts (Count)
system.mem_ctrls.dram.perBankWrBursts::5          275                       # Per bank write bursts (Count)
system.mem_ctrls.dram.perBankWrBursts::6          256                       # Per bank write bursts (Count)
system.mem_ctrls.dram.perBankWrBursts::7          257                       # Per bank write bursts (Count)
system.mem_ctrls.dram.perBankWrBursts::8          145                       # Per bank write bursts (Count)
system.mem_ctrls.dram.perBankWrBursts::9          133                       # Per bank write bursts (Count)
system.mem_ctrls.dram.perBankWrBursts::10          128                       # Per bank write bursts (Count)
system.mem_ctrls.dram.perBankWrBursts::11          145                       # Per bank write bursts (Count)
system.mem_ctrls.dram.perBankWrBursts::12           64                       # Per bank write bursts (Count)
system.mem_ctrls.dram.perBankWrBursts::13            2                       # Per bank write bursts (Count)
system.mem_ctrls.dram.perBankWrBursts::14           11                       # Per bank write bursts (Count)
system.mem_ctrls.dram.perBankWrBursts::15           28                       # Per bank write bursts (Count)
system.mem_ctrls.dram.totQLat                48068750                       # Total ticks spent queuing (Tick)
system.mem_ctrls.dram.totBusLat              13515000                       # Total ticks spent in databus transfers (Tick)
system.mem_ctrls.dram.totMemAccLat           98750000                       # Total ticks spent from burst creation until serviced by the DRAM (Tick)
system.mem_ctrls.dram.avgQLat                17783.48                       # Average queueing delay per DRAM burst ((Tick/Count))
system.mem_ctrls.dram.avgBusLat               5000.00                       # Average bus latency per DRAM burst ((Tick/Count))
system.mem_ctrls.dram.avgMemAccLat           36533.48                       # Average memory access latency per DRAM burst ((Tick/Count))
system.mem_ctrls.dram.readRowHits                2250                       # Number of row buffer hits during reads (Count)
system.mem_ctrls.dram.writeRowHits               1804                       # Number of row buffer hits during writes (Count)
system.mem_ctrls.dram.readRowHitRate            83.24                       # Row buffer hit rate for reads (Ratio)
system.mem_ctrls.dram.writeRowHitRate           90.97                       # Row buffer hit rate for writes (Ratio)
system.mem_ctrls.dram.bytesPerActivate::samples          616                       # Bytes accessed per row activation (Byte)
system.mem_ctrls.dram.bytesPerActivate::mean   482.077922                       # Bytes accessed per row activation (Byte)
system.mem_ctrls.dram.bytesPerActivate::gmean   295.903691                       # Bytes accessed per row activation (Byte)
system.mem_ctrls.dram.bytesPerActivate::stdev   404.404041                       # Bytes accessed per row activation (Byte)
system.mem_ctrls.dram.bytesPerActivate::0-127          128     20.78%     20.78% # Bytes accessed per row activation (Byte)
system.mem_ctrls.dram.bytesPerActivate::128-255          150     24.35%     45.13% # Bytes accessed per row activation (Byte)
system.mem_ctrls.dram.bytesPerActivate::256-383           56      9.09%     54.22% # Bytes accessed per row activation (Byte)
system.mem_ctrls.dram.bytesPerActivate::384-511           35      5.68%     59.90% # Bytes accessed per row activation (Byte)
system.mem_ctrls.dram.bytesPerActivate::512-639           23      3.73%     63.64% # Bytes accessed per row activation (Byte)
system.mem_ctrls.dram.bytesPerActivate::640-767           15      2.44%     66.07% # Bytes accessed per row activation (Byte)
system.mem_ctrls.dram.bytesPerActivate::768-895            8      1.30%     67.37% # Bytes accessed per row activation (Byte)
system.mem_ctrls.dram.bytesPerActivate::896-1023            7      1.14%     68.51% # Bytes accessed per row activation (Byte)
system.mem_ctrls.dram.bytesPerActivate::1024-1151          194     31.49%    100.00% # Bytes accessed per row activation (Byte)
system.mem_ctrls.dram.bytesPerActivate::total          616                       # Bytes accessed per row activation (Byte)
system.mem_ctrls.dram.bytesRead                172992                       # Total bytes read (Byte)
system.mem_ctrls.dram.bytesWritten             126912                       # Total bytes written (Byte)
system.mem_ctrls.dram.avgRdBW              641.295402                       # Average DRAM read bandwidth in MiBytes/s ((Byte/Second))
system.mem_ctrls.dram.avgWrBW              470.473098                       # Average DRAM write bandwidth in MiBytes/s ((Byte/Second))
system.mem_ctrls.dram.peakBW                 12800.00                       # Theoretical peak bandwidth in MiByte/s ((Byte/Second))
system.mem_ctrls.dram.busUtil                    8.69                       # Data bus utilization in percentage (Ratio)
system.mem_ctrls.dram.busUtilRead                5.01                       # Data bus utilization in percentage for reads (Ratio)
system.mem_ctrls.dram.busUtilWrite               3.68                       # Data bus utilization in percentage for writes (Ratio)
system.mem_ctrls.dram.pageHitRate               86.51                       # Row buffer hit rate, read and write combined (Ratio)
system.mem_ctrls.dram.power_state.pwrStateResidencyTicks::UNDEFINED    269754000                       # Cumulative time (in ticks) in various power states (Tick)
system.mem_ctrls.dram.rank0.actEnergy         3255840                       # Energy for activate commands per rank (pJ) (Joule)
system.mem_ctrls.dram.rank0.preEnergy         1700160                       # Energy for precharge commands per rank (pJ) (Joule)
system.mem_ctrls.dram.rank0.readEnergy       12759180                       # Energy for read commands per rank (pJ) (Joule)
system.mem_ctrls.dram.rank0.writeEnergy       6926940                       # Energy for write commands per rank (pJ) (Joule)
system.mem_ctrls.dram.rank0.refreshEnergy 20897760.000000                       # Energy for refresh commands per rank (pJ) (Joule)
system.mem_ctrls.dram.rank0.actBackEnergy    107696370                       # Energy for active background per rank (pJ) (Joule)
system.mem_ctrls.dram.rank0.preBackEnergy     12894240                       # Energy for precharge background per rank (pJ) (Joule)
system.mem_ctrls.dram.rank0.actPowerDownEnergy            0                       # Energy for active power-down per rank (pJ) (Joule)
system.mem_ctrls.dram.rank0.prePowerDownEnergy            0                       # Energy for precharge power-down per rank (pJ) (Joule)
system.mem_ctrls.dram.rank0.selfRefreshEnergy            0                       # Energy for self refresh per rank (pJ) (Joule)
system.mem_ctrls.dram.rank0.totalEnergy     166130490                       # Total energy per rank (pJ) (Joule)
system.mem_ctrls.dram.rank0.averagePower   615.859227                       # Core power per rank (mW) (Watt)
system.mem_ctrls.dram.rank0.totalIdleTime            0                       # Total Idle time Per DRAM Rank (Tick)
system.mem_ctrls.dram.rank0.pwrStateTime::IDLE     32351500                       # Time in different power states (Tick)
system.mem_ctrls.dram.rank0.pwrStateTime::REF      8840000                       # Time in different power states (Tick)
system.mem_ctrls.dram.rank0.pwrStateTime::SREF            0                       # Time in different power states (Tick)
system.mem_ctrls.dram.rank0.pwrStateTime::PRE_PDN            0                       # Time in different power states (Tick)
system.mem_ctrls.dram.rank0.pwrStateTime::ACT    228562500                       # Time in different power states (Tick)
system.mem_ctrls.dram.rank0.pwrStateTime::ACT_PDN            0                       # Time in different power states (Tick)
system.mem_ctrls.dram.rank1.actEnergy         1256640                       # Energy for activate commands per rank (pJ) (Joule)
system.mem_ctrls.dram.rank1.preEnergy          637560                       # Energy for precharge commands per rank (pJ) (Joule)
system.mem_ctrls.dram.rank1.readEnergy        6540240                       # Energy for read commands per rank (pJ) (Joule)
system.mem_ctrls.dram.rank1.writeEnergy       3424320                       # Energy for write commands per rank (pJ) (Joule)
system.mem_ctrls.dram.rank1.refreshEnergy 20897760.000000                       # Energy for refresh commands per rank (pJ) (Joule)
system.mem_ctrls.dram.rank1.actBackEnergy     45624510                       # Energy for active background per rank (pJ) (Joule)
system.mem_ctrls.dram.rank1.preBackEnergy     65165280                       # Energy for precharge background per rank (pJ) (Joule)
system.mem_ctrls.dram.rank1.actPowerDownEnergy            0                       # Energy for active power-down per rank (pJ) (Joule)
system.mem_ctrls.dram.rank1.prePowerDownEnergy            0                       # Energy for precharge power-down per rank (pJ) (Joule)
system.mem_ctrls.dram.rank1.selfRefreshEnergy            0                       # Energy for self refresh per rank (pJ) (Joule)
system.mem_ctrls.dram.rank1.totalEnergy     143546310                       # Total energy per rank (pJ) (Joule)
system.mem_ctrls.dram.rank1.averagePower   532.137837                       # Core power per rank (mW) (Watt)
system.mem_ctrls.dram.rank1.totalIdleTime            0                       # Total Idle time Per DRAM Rank (Tick)
system.mem_ctrls.dram.rank1.pwrStateTime::IDLE    168971250                       # Time in different power states (Tick)
system.mem_ctrls.dram.rank1.pwrStateTime::REF      8840000                       # Time in different power states (Tick)
system.mem_ctrls.dram.rank1.pwrStateTime::SREF            0                       # Time in different power states (Tick)
system.mem_ctrls.dram.rank1.pwrStateTime::PRE_PDN            0                       # Time in different power states (Tick)
system.mem_ctrls.dram.rank1.pwrStateTime::ACT     91942750                       # Time in different power states (Tick)
system.mem_ctrls.dram.rank1.pwrStateTime::ACT_PDN            0                       # Time in different power states (Tick)
system.mem_ctrls.power_state.pwrStateResidencyTicks::UNDEFINED    269754000                       # Cumulative time (in ticks) in various power states (Tick)
system.membus.transDist::ReadResp                2122                       # Transaction distribution (Count)
system.membus.transDist::WritebackDirty          1810                       # Transaction distribution (Count)
system.membus.transDist::WritebackClean           222                       # Transaction distribution (Count)
system.membus.transDist::CleanEvict              1343                       # Transaction distribution (Count)
system.membus.transDist::ReadExReq                676                       # Transaction distribution (Count)
system.membus.transDist::ReadExResp               676                       # Transaction distribution (Count)
system.membus.transDist::ReadCleanReq             668                       # Transaction distribution (Count)
system.membus.transDist::ReadSharedReq           1454                       # Transaction distribution (Count)
system.membus.transDist::InvalidateReq           1055                       # Transaction distribution (Count)
system.membus.pktCount_system.cpu.icache.mem_side_port::system.mem_ctrls.port         1558                       # Packet count per connected requestor and responder (Count)
system.membus.pktCount_system.cpu.dcache.mem_side_port::system.mem_ctrls.port         8468                       # Packet count per connected requestor and responder (Count)
system.membus.pktCount::total                   10026                       # Packet count per connected requestor and responder (Count)
system.membus.pktSize_system.cpu.icache.mem_side_port::system.mem_ctrls.port        56960                       # Cumulative packet size per connected requestor and responder (Byte)
system.membus.pktSize_system.cpu.dcache.mem_side_port::system.mem_ctrls.port       252160                       # Cumulative packet size per connected requestor and responder (Byte)
system.membus.pktSize::total                   309120                       # Cumulative packet size per connected requestor and responder (Byte)
system.membus.snoops                                0                       # Total snoops (Count)
system.membus.snoopTraffic                          0                       # Total snoop traffic (Byte)
system.membus.snoopFanout::samples               3853                       # Request fanout histogram (Count)
system.membus.snoopFanout::mean              0.000519                       # Request fanout histogram (Count)
system.membus.snoopFanout::stdev             0.022780                       # Request fanout histogram (Count)
system.membus.snoopFanout::underflows               0      0.00%      0.00% # Request fanout histogram (Count)
system.membus.snoopFanout::0                     3851     99.95%     99.95% # Request fanout histogram (Count)
system.membus.snoopFanout::1                        2      0.05%    100.00% # Request fanout histogram (Count)
system.membus.snoopFanout::2                        0      0.00%    100.00% # Request fanout histogram (Count)
system.membus.snoopFanout::overflows                0      0.00%    100.00% # Request fanout histogram (Count)
system.membus.snoopFanout::min_value                0                       # Request fanout histogram (Count)
system.membus.snoopFanout::max_value                1                       # Request fanout histogram (Count)
system.membus.snoopFanout::total                 3853                       # Request fanout histogram (Count)
system.membus.power_state.pwrStateResidencyTicks::UNDEFINED    269754000                       # Cumulative time (in ticks) in various power states (Tick)
system.membus.reqLayer0.occupancy            15836750                       # Layer occupancy (ticks) (Tick)
system.membus.reqLayer0.utilization               0.1                       # Layer utilization (Ratio)
system.membus.respLayer1.occupancy            3556749                       # Layer occupancy (ticks) (Tick)
system.membus.respLayer1.utilization              0.0                       # Layer utilization (Ratio)
system.membus.respLayer2.occupancy           11228000                       # Layer occupancy (ticks) (Tick)
system.membus.respLayer2.utilization              0.0                       # Layer utilization (Ratio)
system.membus.snoop_filter.totRequests           7229                       # Total number of requests made to the snoop filter. (Count)
system.membus.snoop_filter.hitSingleRequests         3376                       # Number of requests hitting in the snoop filter with a single holder of the requested data. (Count)
system.membus.snoop_filter.hitMultiRequests            2                       # Number of requests hitting in the snoop filter with multiple (>1) holders of the requested data. (Count)
system.membus.snoop_filter.totSnoops                0                       # Total number of snoops made to the snoop filter. (Count)
system.membus.snoop_filter.hitSingleSnoops            0                       # Number of snoops hitting in the snoop filter with a single holder of the requested data. (Count)
system.membus.snoop_filter.hitMultiSnoops            0                       # Number of snoops hitting in the snoop filter with multiple (>1) holders of the requested data. (Count)
system.voltage_domain.voltage                       1                       # Voltage in Volts (Volt)
system.workload.inst.arm                            0                       # number of arm instructions executed (Count)
system.workload.inst.quiesce                        0                       # number of quiesce instructions executed (Count)

---------- End Simulation Statistics   ----------
