
---------- Begin Simulation Statistics ----------
simSeconds                                   0.000263                       # Number of seconds simulated (Second)
simTicks                                    263116500                       # Number of ticks simulated (Tick)
finalTick                                   263116500                       # Number of ticks from beginning of simulation (restored from checkpoints and never reset) (Tick)
simFreq                                  1000000000000                       # The number of ticks per simulated second ((Tick/Second))
hostSeconds                                      1.06                       # Real time elapsed on the host (Second)
hostTickRate                                248723103                       # The number of ticks simulated per host second (ticks/s) ((Tick/Second))
hostMemory                                     671436                       # Number of bytes of host memory used (Byte)
simInsts                                       808582                       # Number of instructions simulated (Count)
simOps                                         817727                       # Number of ops (including micro ops) simulated (Count)
hostInstRate                                   764317                       # Simulator instruction rate (inst/s) ((Count/Second))
hostOpRate                                     772957                       # Simulator op (including micro ops) rate (op/s) ((Count/Second))
system.clk_domain.clock                          1000                       # Clock period in ticks (Tick)
system.cpu.numCycles                           526234                       # Number of cpu cycles simulated (Cycle)
system.cpu.numWorkItemsStarted                      0                       # Number of work items this cpu started (Count)
system.cpu.numWorkItemsCompleted                    0                       # Number of work items this cpu completed (Count)
system.cpu.instsAdded                          845097                       # Number of instructions added to the IQ (excludes non-spec) (Count)
system.cpu.nonSpecInstsAdded                       93                       # Number of non-speculative instructions added to the IQ (Count)
system.cpu.instsIssued                         838306                       # Number of instructions issued (Count)
system.cpu.squashedInstsIssued                    190                       # Number of squashed instructions issued (Count)
system.cpu.squashedInstsExamined                27462                       # Number of squashed instructions iterated over during squash; mainly for profiling (Count)
system.cpu.squashedOperandsExamined             21248                       # Number of squashed operands that are examined and possibly removed from graph (Count)
system.cpu.squashedNonSpecRemoved                  33                       # Number of squashed non-spec instructions that were removed (Count)
system.cpu.numIssuedDist::samples              485534                       # Number of insts issued each cycle (Count)
system.cpu.numIssuedDist::mean               1.726565                       # Number of insts issued each cycle (Count)
system.cpu.numIssuedDist::stdev              1.409473                       # Number of insts issued each cycle (Count)
system.cpu.numIssuedDist::underflows                0      0.00%      0.00% # Number of insts issued each cycle (Count)
system.cpu.numIssuedDist::0                    140375     28.91%     28.91% # Number of insts issued each cycle (Count)
system.cpu.numIssuedDist::1                     48270      9.94%     38.85% # Number of insts issued each cycle (Count)
system.cpu.numIssuedDist::2                    184760     38.05%     76.91% # Number of insts issued each cycle (Count)
system.cpu.numIssuedDist::3                     37617      7.75%     84.65% # Number of insts issued each cycle (Count)
system.cpu.numIssuedDist::4                     67821     13.97%     98.62% # Number of insts issued each cycle (Count)
system.cpu.numIssuedDist::5                      4351      0.90%     99.52% # Number of insts issued each cycle (Count)
system.cpu.numIssuedDist::6                      1916      0.39%     99.91% # Number of insts issued each cycle (Count)
system.cpu.numIssuedDist::7                       262      0.05%     99.97% # Number of insts issued each cycle (Count)
system.cpu.numIssuedDist::8                       162      0.03%    100.00% # Number of insts issued each cycle (Count)
system.cpu.numIssuedDist::overflows                 0      0.00%    100.00% # Number of insts issued each cycle (Count)
system.cpu.numIssuedDist::min_value                 0                       # Number of insts issued each cycle (Count)
system.cpu.numIssuedDist::max_value                 8                       # Number of insts issued each cycle (Count)
system.cpu.numIssuedDist::total                485534                       # Number of insts issued each cycle (Count)
system.cpu.statFuBusy::No_OpClass                   0      0.00%      0.00% # attempts to use FU when none available (Count)
system.cpu.statFuBusy::IntAlu                      93      0.30%      0.30% # attempts to use FU when none available (Count)
system.cpu.statFuBusy::IntMult                      0      0.00%      0.30% # attempts to use FU when none available (Count)
system.cpu.statFuBusy::IntDiv                       0      0.00%      0.30% # attempts to use FU when none available (Count)
system.cpu.statFuBusy::FloatAdd                     0      0.00%      0.30% # attempts to use FU when none available (Count)
system.cpu.statFuBusy::FloatCmp                     0      0.00%      0.30% # attempts to use FU when none available (Count)
system.cpu.statFuBusy::FloatCvt                     0      0.00%      0.30% # attempts to use FU when none available (Count)
system.cpu.statFuBusy::FloatMult                    0      0.00%      0.30% # attempts to use FU when none available (Count)
system.cpu.statFuBusy::FloatMultAcc                 0      0.00%      0.30% # attempts to use FU when none available (Count)
system.cpu.statFuBusy::FloatDiv                     0      0.00%      0.30% # attempts to use FU when none available (Count)
system.cpu.statFuBusy::FloatMisc                    0      0.00%      0.30% # attempts to use FU when none available (Count)
system.cpu.statFuBusy::FloatSqrt                    0      0.00%      0.30% # attempts to use FU when none available (Count)
system.cpu.statFuBusy::SimdAdd                      0      0.00%      0.30% # attempts to use FU when none available (Count)
system.cpu.statFuBusy::SimdAddAcc                   0      0.00%      0.30% # attempts to use FU when none available (Count)
system.cpu.statFuBusy::SimdAlu                      0      0.00%      0.30% # attempts to use FU when none available (Count)
system.cpu.statFuBusy::SimdCmp                      1      0.00%      0.30% # attempts to use FU when none available (Count)
system.cpu.statFuBusy::SimdCvt                      0      0.00%      0.30% # attempts to use FU when none available (Count)
system.cpu.statFuBusy::SimdMisc                     0      0.00%      0.30% # attempts to use FU when none available (Count)
system.cpu.statFuBusy::SimdMult                     0      0.00%      0.30% # attempts to use FU when none available (Count)
system.cpu.statFuBusy::SimdMultAcc                  0      0.00%      0.30% # attempts to use FU when none available (Count)
system.cpu.statFuBusy::SimdShift                    0      0.00%      0.30% # attempts to use FU when none available (Count)
system.cpu.statFuBusy::SimdShiftAcc                 0      0.00%      0.30% # attempts to use FU when none available (Count)
system.cpu.statFuBusy::SimdDiv                      0      0.00%      0.30% # attempts to use FU when none available (Count)
system.cpu.statFuBusy::SimdSqrt                     0      0.00%      0.30% # attempts to use FU when none available (Count)
system.cpu.statFuBusy::SimdFloatAdd                 0      0.00%      0.30% # attempts to use FU when none available (Count)
system.cpu.statFuBusy::SimdFloatAlu                 0      0.00%      0.30% # attempts to use FU when none available (Count)
system.cpu.statFuBusy::SimdFloatCmp                 0      0.00%      0.30% # attempts to use FU when none available (Count)
system.cpu.statFuBusy::SimdFloatCvt                 0      0.00%      0.30% # attempts to use FU when none available (Count)
system.cpu.statFuBusy::SimdFloatDiv                 0      0.00%      0.30% # attempts to use FU when none available (Count)
system.cpu.statFuBusy::SimdFloatMisc                0      0.00%      0.30% # attempts to use FU when none available (Count)
system.cpu.statFuBusy::SimdFloatMult                0      0.00%      0.30% # attempts to use FU when none available (Count)
system.cpu.statFuBusy::SimdFloatMultAcc             0      0.00%      0.30% # attempts to use FU when none available (Count)
system.cpu.statFuBusy::SimdFloatSqrt                0      0.00%      0.30% # attempts to use FU when none available (Count)
system.cpu.statFuBusy::SimdReduceAdd                0      0.00%      0.30% # attempts to use FU when none available (Count)
system.cpu.statFuBusy::SimdReduceAlu                0      0.00%      0.30% # attempts to use FU when none available (Count)
system.cpu.statFuBusy::SimdReduceCmp                0      0.00%      0.30% # attempts to use FU when none available (Count)
system.cpu.statFuBusy::SimdFloatReduceAdd            0      0.00%      0.30% # attempts to use FU when none available (Count)
system.cpu.statFuBusy::SimdFloatReduceCmp            0      0.00%      0.30% # attempts to use FU when none available (Count)
system.cpu.statFuBusy::SimdAes                      0      0.00%      0.30% # attempts to use FU when none available (Count)
system.cpu.statFuBusy::SimdAesMix                   0      0.00%      0.30% # attempts to use FU when none available (Count)
system.cpu.statFuBusy::SimdSha1Hash                 0      0.00%      0.30% # attempts to use FU when none available (Count)
system.cpu.statFuBusy::SimdSha1Hash2                0      0.00%      0.30% # attempts to use FU when none available (Count)
system.cpu.statFuBusy::SimdSha256Hash               0      0.00%      0.30% # attempts to use FU when none available (Count)
system.cpu.statFuBusy::SimdSha256Hash2              0      0.00%      0.30% # attempts to use FU when none available (Count)
system.cpu.statFuBusy::SimdShaSigma2                0      0.00%      0.30% # attempts to use FU when none available (Count)
system.cpu.statFuBusy::SimdShaSigma3                0      0.00%      0.30% # attempts to use FU when none available (Count)
system.cpu.statFuBusy::SimdPredAlu                  0      0.00%      0.30% # attempts to use FU when none available (Count)
system.cpu.statFuBusy::MemRead                  30754     99.11%     99.41% # attempts to use FU when none available (Count)
system.cpu.statFuBusy::MemWrite                   183      0.59%    100.00% # attempts to use FU when none available (Count)
system.cpu.statFuBusy::FloatMemRead                 0      0.00%    100.00% # attempts to use FU when none available (Count)
system.cpu.statFuBusy::FloatMemWrite                0      0.00%    100.00% # attempts to use FU when none available (Count)
system.cpu.statFuBusy::IprAccess                    0      0.00%    100.00% # attempts to use FU when none available (Count)
system.cpu.statFuBusy::InstPrefetch                 0      0.00%    100.00% # attempts to use FU when none available (Count)
system.cpu.statIssuedInstType_0::No_OpClass           29      0.00%      0.00% # Number of instructions issued per FU type, per thread (Count)
system.cpu.statIssuedInstType_0::IntAlu        453514     54.10%     54.10% # Number of instructions issued per FU type, per thread (Count)
system.cpu.statIssuedInstType_0::IntMult           10      0.00%     54.10% # Number of instructions issued per FU type, per thread (Count)
system.cpu.statIssuedInstType_0::IntDiv             3      0.00%     54.10% # Number of instructions issued per FU type, per thread (Count)
system.cpu.statIssuedInstType_0::FloatAdd            0      0.00%     54.10% # Number of instructions issued per FU type, per thread (Count)
system.cpu.statIssuedInstType_0::FloatCmp            0      0.00%     54.10% # Number of instructions issued per FU type, per thread (Count)
system.cpu.statIssuedInstType_0::FloatCvt            0      0.00%     54.10% # Number of instructions issued per FU type, per thread (Count)
system.cpu.statIssuedInstType_0::FloatMult            0      0.00%     54.10% # Number of instructions issued per FU type, per thread (Count)
system.cpu.statIssuedInstType_0::FloatMultAcc            0      0.00%     54.10% # Number of instructions issued per FU type, per thread (Count)
system.cpu.statIssuedInstType_0::FloatDiv            0      0.00%     54.10% # Number of instructions issued per FU type, per thread (Count)
system.cpu.statIssuedInstType_0::FloatMisc            0      0.00%     54.10% # Number of instructions issued per FU type, per thread (Count)
system.cpu.statIssuedInstType_0::FloatSqrt            0      0.00%     54.10% # Number of instructions issued per FU type, per thread (Count)
system.cpu.statIssuedInstType_0::SimdAdd           30      0.00%     54.11% # Number of instructions issued per FU type, per thread (Count)
system.cpu.statIssuedInstType_0::SimdAddAcc            0      0.00%     54.11% # Number of instructions issued per FU type, per thread (Count)
system.cpu.statIssuedInstType_0::SimdAlu           45      0.01%     54.11% # Number of instructions issued per FU type, per thread (Count)
system.cpu.statIssuedInstType_0::SimdCmp           44      0.01%     54.12% # Number of instructions issued per FU type, per thread (Count)
system.cpu.statIssuedInstType_0::SimdCvt            0      0.00%     54.12% # Number of instructions issued per FU type, per thread (Count)
system.cpu.statIssuedInstType_0::SimdMisc           39      0.00%     54.12% # Number of instructions issued per FU type, per thread (Count)
system.cpu.statIssuedInstType_0::SimdMult            0      0.00%     54.12% # Number of instructions issued per FU type, per thread (Count)
system.cpu.statIssuedInstType_0::SimdMultAcc            0      0.00%     54.12% # Number of instructions issued per FU type, per thread (Count)
system.cpu.statIssuedInstType_0::SimdShift            0      0.00%     54.12% # Number of instructions issued per FU type, per thread (Count)
system.cpu.statIssuedInstType_0::SimdShiftAcc            0      0.00%     54.12% # Number of instructions issued per FU type, per thread (Count)
system.cpu.statIssuedInstType_0::SimdDiv            0      0.00%     54.12% # Number of instructions issued per FU type, per thread (Count)
system.cpu.statIssuedInstType_0::SimdSqrt            0      0.00%     54.12% # Number of instructions issued per FU type, per thread (Count)
system.cpu.statIssuedInstType_0::SimdFloatAdd            0      0.00%     54.12% # Number of instructions issued per FU type, per thread (Count)
system.cpu.statIssuedInstType_0::SimdFloatAlu            0      0.00%     54.12% # Number of instructions issued per FU type, per thread (Count)
system.cpu.statIssuedInstType_0::SimdFloatCmp            0      0.00%     54.12% # Number of instructions issued per FU type, per thread (Count)
system.cpu.statIssuedInstType_0::SimdFloatCvt            0      0.00%     54.12% # Number of instructions issued per FU type, per thread (Count)
system.cpu.statIssuedInstType_0::SimdFloatDiv            0      0.00%     54.12% # Number of instructions issued per FU type, per thread (Count)
system.cpu.statIssuedInstType_0::SimdFloatMisc            0      0.00%     54.12% # Number of instructions issued per FU type, per thread (Count)
system.cpu.statIssuedInstType_0::SimdFloatMult            0      0.00%     54.12% # Number of instructions issued per FU type, per thread (Count)
system.cpu.statIssuedInstType_0::SimdFloatMultAcc            0      0.00%     54.12% # Number of instructions issued per FU type, per thread (Count)
system.cpu.statIssuedInstType_0::SimdFloatSqrt            0      0.00%     54.12% # Number of instructions issued per FU type, per thread (Count)
system.cpu.statIssuedInstType_0::SimdReduceAdd            0      0.00%     54.12% # Number of instructions issued per FU type, per thread (Count)
system.cpu.statIssuedInstType_0::SimdReduceAlu            0      0.00%     54.12% # Number of instructions issued per FU type, per thread (Count)
system.cpu.statIssuedInstType_0::SimdReduceCmp            0      0.00%     54.12% # Number of instructions issued per FU type, per thread (Count)
system.cpu.statIssuedInstType_0::SimdFloatReduceAdd            0      0.00%     54.12% # Number of instructions issued per FU type, per thread (Count)
system.cpu.statIssuedInstType_0::SimdFloatReduceCmp            0      0.00%     54.12% # Number of instructions issued per FU type, per thread (Count)
system.cpu.statIssuedInstType_0::SimdAes            0      0.00%     54.12% # Number of instructions issued per FU type, per thread (Count)
system.cpu.statIssuedInstType_0::SimdAesMix            0      0.00%     54.12% # Number of instructions issued per FU type, per thread (Count)
system.cpu.statIssuedInstType_0::SimdSha1Hash            0      0.00%     54.12% # Number of instructions issued per FU type, per thread (Count)
system.cpu.statIssuedInstType_0::SimdSha1Hash2            0      0.00%     54.12% # Number of instructions issued per FU type, per thread (Count)
system.cpu.statIssuedInstType_0::SimdSha256Hash            0      0.00%     54.12% # Number of instructions issued per FU type, per thread (Count)
system.cpu.statIssuedInstType_0::SimdSha256Hash2            0      0.00%     54.12% # Number of instructions issued per FU type, per thread (Count)
system.cpu.statIssuedInstType_0::SimdShaSigma2            0      0.00%     54.12% # Number of instructions issued per FU type, per thread (Count)
system.cpu.statIssuedInstType_0::SimdShaSigma3            0      0.00%     54.12% # Number of instructions issued per FU type, per thread (Count)
system.cpu.statIssuedInstType_0::SimdPredAlu            0      0.00%     54.12% # Number of instructions issued per FU type, per thread (Count)
system.cpu.statIssuedInstType_0::MemRead       342045     40.80%     94.92% # Number of instructions issued per FU type, per thread (Count)
system.cpu.statIssuedInstType_0::MemWrite        42547      5.08%    100.00% # Number of instructions issued per FU type, per thread (Count)
system.cpu.statIssuedInstType_0::FloatMemRead            0      0.00%    100.00% # Number of instructions issued per FU type, per thread (Count)
system.cpu.statIssuedInstType_0::FloatMemWrite            0      0.00%    100.00% # Number of instructions issued per FU type, per thread (Count)
system.cpu.statIssuedInstType_0::IprAccess            0      0.00%    100.00% # Number of instructions issued per FU type, per thread (Count)
system.cpu.statIssuedInstType_0::InstPrefetch            0      0.00%    100.00% # Number of instructions issued per FU type, per thread (Count)
system.cpu.statIssuedInstType_0::total         838306                       # Number of instructions issued per FU type, per thread (Count)
system.cpu.issueRate                         1.593029                       # Inst issue rate ((Count/Cycle))
system.cpu.fuBusy                               31031                       # FU busy when requested (Count)
system.cpu.fuBusyRate                        0.037016                       # FU busy rate (busy events/executed inst) ((Count/Count))
system.cpu.intInstQueueReads                  2192409                       # Number of integer instruction queue reads (Count)
system.cpu.intInstQueueWrites                  871960                       # Number of integer instruction queue writes (Count)
system.cpu.intInstQueueWakeupAccesses          831314                       # Number of integer instruction queue wakeup accesses (Count)
system.cpu.fpInstQueueReads                         0                       # Number of floating instruction queue reads (Count)
system.cpu.fpInstQueueWrites                        0                       # Number of floating instruction queue writes (Count)
system.cpu.fpInstQueueWakeupAccesses                0                       # Number of floating instruction queue wakeup accesses (Count)
system.cpu.vecInstQueueReads                      958                       # Number of vector instruction queue reads (Count)
system.cpu.vecInstQueueWrites                     763                       # Number of vector instruction queue writes (Count)
system.cpu.vecInstQueueWakeupAccesses             384                       # Number of vector instruction queue wakeup accesses (Count)
system.cpu.intAluAccesses                      868849                       # Number of integer alu accesses (Count)
system.cpu.fpAluAccesses                            0                       # Number of floating point alu accesses (Count)
system.cpu.vecAluAccesses                         459                       # Number of vector alu accesses (Count)
system.cpu.numInsts                            836568                       # Number of executed instructions (Count)
system.cpu.numLoadInsts                        341100                       # Number of load instructions executed (Count)
system.cpu.numSquashedInsts                      1738                       # Number of squashed instructions skipped in execute (Count)
system.cpu.numSwp                                   0                       # Number of swp insts executed (Count)
system.cpu.numNop                               33166                       # Number of nop insts executed (Count)
system.cpu.numRefs                             383408                       # Number of memory reference insts executed (Count)
system.cpu.numBranches                         169382                       # Number of branches executed (Count)
system.cpu.numStoreInsts                        42308                       # Number of stores executed (Count)
system.cpu.numRate                           1.589726                       # Inst execution rate ((Count/Cycle))
system.cpu.timesIdled                             473                       # Number of times that the entire CPU went into an idle state and unscheduled itself (Count)
system.cpu.idleCycles                           40700                       # Total number of cycles that the CPU has spent unscheduled due to idling (Cycle)
system.cpu.committedInsts                      808582                       # Number of Instructions Simulated (Count)
system.cpu.committedOps                        817727                       # Number of Ops (including micro ops) Simulated (Count)
system.cpu.cpi                               0.650811                       # CPI: Cycles Per Instruction ((Cycle/Count))
system.cpu.totalCpi                          0.650811                       # CPI: Total CPI of All Threads ((Cycle/Count))
system.cpu.ipc                               1.536545                       # IPC: Instructions Per Cycle ((Count/Cycle))
system.cpu.totalIpc                          1.536545                       # IPC: Total IPC of All Threads ((Count/Cycle))
system.cpu.intRegfileReads                     809128                       # Number of integer regfile reads (Count)
system.cpu.intRegfileWrites                    623774                       # Number of integer regfile writes (Count)
system.cpu.vecRegfileReads                        459                       # number of vector regfile reads (Count)
system.cpu.vecRegfileWrites                       185                       # number of vector regfile writes (Count)
system.cpu.ccRegfileReads                      403953                       # number of cc regfile reads (Count)
system.cpu.ccRegfileWrites                     404055                       # number of cc regfile writes (Count)
system.cpu.miscRegfileReads                   2248530                       # number of misc regfile reads (Count)
system.cpu.miscRegfileWrites                       45                       # number of misc regfile writes (Count)
system.cpu.MemDepUnit__0.insertedLoads         342144                       # Number of loads inserted to the mem dependence unit. (Count)
system.cpu.MemDepUnit__0.insertedStores         43242                       # Number of stores inserted to the mem dependence unit. (Count)
system.cpu.MemDepUnit__0.conflictingLoads        73845                       # Number of conflicting loads. (Count)
system.cpu.MemDepUnit__0.conflictingStores         1776                       # Number of conflicting stores. (Count)
system.cpu.MemDepUnit__1.insertedLoads              0                       # Number of loads inserted to the mem dependence unit. (Count)
system.cpu.MemDepUnit__1.insertedStores             0                       # Number of stores inserted to the mem dependence unit. (Count)
system.cpu.MemDepUnit__1.conflictingLoads            0                       # Number of conflicting loads. (Count)
system.cpu.MemDepUnit__1.conflictingStores            0                       # Number of conflicting stores. (Count)
system.cpu.MemDepUnit__2.insertedLoads              0                       # Number of loads inserted to the mem dependence unit. (Count)
system.cpu.MemDepUnit__2.insertedStores             0                       # Number of stores inserted to the mem dependence unit. (Count)
system.cpu.MemDepUnit__2.conflictingLoads            0                       # Number of conflicting loads. (Count)
system.cpu.MemDepUnit__2.conflictingStores            0                       # Number of conflicting stores. (Count)
system.cpu.MemDepUnit__3.insertedLoads              0                       # Number of loads inserted to the mem dependence unit. (Count)
system.cpu.MemDepUnit__3.insertedStores             0                       # Number of stores inserted to the mem dependence unit. (Count)
system.cpu.MemDepUnit__3.conflictingLoads            0                       # Number of conflicting loads. (Count)
system.cpu.MemDepUnit__3.conflictingStores            0                       # Number of conflicting stores. (Count)
system.cpu.branchPred.lookups                  175741                       # Number of BP lookups (Count)
system.cpu.branchPred.condPredicted            140778                       # Number of conditional branches predicted (Count)
system.cpu.branchPred.condIncorrect              1557                       # Number of conditional branches incorrect (Count)
system.cpu.branchPred.BTBLookups               171343                       # Number of BTB lookups (Count)
system.cpu.branchPred.BTBHits                  170032                       # Number of BTB hits (Count)
system.cpu.branchPred.BTBHitRatio            0.992349                       # BTB Hit Ratio (Ratio)
system.cpu.branchPred.RASUsed                     544                       # Number of times the RAS was used to get a target. (Count)
system.cpu.branchPred.RASIncorrect                  0                       # Number of incorrect RAS predictions. (Count)
system.cpu.branchPred.indirectLookups             176                       # Number of indirect predictor lookups. (Count)
system.cpu.branchPred.indirectHits                  3                       # Number of indirect target hits. (Count)
system.cpu.branchPred.indirectMisses              173                       # Number of indirect misses. (Count)
system.cpu.branchPred.indirectMispredicted           60                       # Number of mispredicted indirect branches. (Count)
system.cpu.commit.commitSquashedInsts           28133                       # The number of squashed insts skipped by commit (Count)
system.cpu.commit.commitNonSpecStalls              60                       # The number of times commit has been forced to stall to communicate backwards (Count)
system.cpu.commit.branchMispredicts              1234                       # The number of times a branch was mispredicted (Count)
system.cpu.commit.numCommittedDist::samples       481204                       # Number of insts commited each cycle (Count)
system.cpu.commit.numCommittedDist::mean     1.766793                       # Number of insts commited each cycle (Count)
system.cpu.commit.numCommittedDist::stdev     2.312502                       # Number of insts commited each cycle (Count)
system.cpu.commit.numCommittedDist::underflows            0      0.00%      0.00% # Number of insts commited each cycle (Count)
system.cpu.commit.numCommittedDist::0          218408     45.39%     45.39% # Number of insts commited each cycle (Count)
system.cpu.commit.numCommittedDist::1           98999     20.57%     65.96% # Number of insts commited each cycle (Count)
system.cpu.commit.numCommittedDist::2           31312      6.51%     72.47% # Number of insts commited each cycle (Count)
system.cpu.commit.numCommittedDist::3            2220      0.46%     72.93% # Number of insts commited each cycle (Count)
system.cpu.commit.numCommittedDist::4           59411     12.35%     85.28% # Number of insts commited each cycle (Count)
system.cpu.commit.numCommittedDist::5           30527      6.34%     91.62% # Number of insts commited each cycle (Count)
system.cpu.commit.numCommittedDist::6             682      0.14%     91.76% # Number of insts commited each cycle (Count)
system.cpu.commit.numCommittedDist::7           29626      6.16%     97.92% # Number of insts commited each cycle (Count)
system.cpu.commit.numCommittedDist::8           10019      2.08%    100.00% # Number of insts commited each cycle (Count)
system.cpu.commit.numCommittedDist::overflows            0      0.00%    100.00% # Number of insts commited each cycle (Count)
system.cpu.commit.numCommittedDist::min_value            0                       # Number of insts commited each cycle (Count)
system.cpu.commit.numCommittedDist::max_value            8                       # Number of insts commited each cycle (Count)
system.cpu.commit.numCommittedDist::total       481204                       # Number of insts commited each cycle (Count)
system.cpu.commit.instsCommitted               841043                       # Number of instructions committed (Count)
system.cpu.commit.opsCommitted                 850188                       # Number of ops (including micro ops) committed (Count)
system.cpu.commit.memRefs                      374117                       # Number of memory references committed (Count)
system.cpu.commit.loads                        333461                       # Number of loads committed (Count)
system.cpu.commit.amos                             14                       # Number of atomic instructions committed (Count)
system.cpu.commit.membars                          18                       # Number of memory barriers committed (Count)
system.cpu.commit.branches                     166795                       # Number of branches committed (Count)
system.cpu.commit.vectorInstructions              275                       # Number of committed Vector instructions. (Count)
system.cpu.commit.floating                          0                       # Number of committed floating point instructions. (Count)
system.cpu.commit.integer                      651930                       # Number of committed integer instructions. (Count)
system.cpu.commit.functionCalls                   226                       # Number of function calls committed. (Count)
system.cpu.commit.committedInstType_0::No_OpClass           26      0.00%      0.00% # Class of committed instruction (Count)
system.cpu.commit.committedInstType_0::IntAlu       475919     55.98%     55.98% # Class of committed instruction (Count)
system.cpu.commit.committedInstType_0::IntMult            8      0.00%     55.98% # Class of committed instruction (Count)
system.cpu.commit.committedInstType_0::IntDiv            3      0.00%     55.98% # Class of committed instruction (Count)
system.cpu.commit.committedInstType_0::FloatAdd            0      0.00%     55.98% # Class of committed instruction (Count)
system.cpu.commit.committedInstType_0::FloatCmp            0      0.00%     55.98% # Class of committed instruction (Count)
system.cpu.commit.committedInstType_0::FloatCvt            0      0.00%     55.98% # Class of committed instruction (Count)
system.cpu.commit.committedInstType_0::FloatMult            0      0.00%     55.98% # Class of committed instruction (Count)
system.cpu.commit.committedInstType_0::FloatMultAcc            0      0.00%     55.98% # Class of committed instruction (Count)
system.cpu.commit.committedInstType_0::FloatDiv            0      0.00%     55.98% # Class of committed instruction (Count)
system.cpu.commit.committedInstType_0::FloatMisc            0      0.00%     55.98% # Class of committed instruction (Count)
system.cpu.commit.committedInstType_0::FloatSqrt            0      0.00%     55.98% # Class of committed instruction (Count)
system.cpu.commit.committedInstType_0::SimdAdd           23      0.00%     55.99% # Class of committed instruction (Count)
system.cpu.commit.committedInstType_0::SimdAddAcc            0      0.00%     55.99% # Class of committed instruction (Count)
system.cpu.commit.committedInstType_0::SimdAlu           32      0.00%     55.99% # Class of committed instruction (Count)
system.cpu.commit.committedInstType_0::SimdCmp           32      0.00%     55.99% # Class of committed instruction (Count)
system.cpu.commit.committedInstType_0::SimdCvt            0      0.00%     55.99% # Class of committed instruction (Count)
system.cpu.commit.committedInstType_0::SimdMisc           28      0.00%     56.00% # Class of committed instruction (Count)
system.cpu.commit.committedInstType_0::SimdMult            0      0.00%     56.00% # Class of committed instruction (Count)
system.cpu.commit.committedInstType_0::SimdMultAcc            0      0.00%     56.00% # Class of committed instruction (Count)
system.cpu.commit.committedInstType_0::SimdShift            0      0.00%     56.00% # Class of committed instruction (Count)
system.cpu.commit.committedInstType_0::SimdShiftAcc            0      0.00%     56.00% # Class of committed instruction (Count)
system.cpu.commit.committedInstType_0::SimdDiv            0      0.00%     56.00% # Class of committed instruction (Count)
system.cpu.commit.committedInstType_0::SimdSqrt            0      0.00%     56.00% # Class of committed instruction (Count)
system.cpu.commit.committedInstType_0::SimdFloatAdd            0      0.00%     56.00% # Class of committed instruction (Count)
system.cpu.commit.committedInstType_0::SimdFloatAlu            0      0.00%     56.00% # Class of committed instruction (Count)
system.cpu.commit.committedInstType_0::SimdFloatCmp            0      0.00%     56.00% # Class of committed instruction (Count)
system.cpu.commit.committedInstType_0::SimdFloatCvt            0      0.00%     56.00% # Class of committed instruction (Count)
system.cpu.commit.committedInstType_0::SimdFloatDiv            0      0.00%     56.00% # Class of committed instruction (Count)
system.cpu.commit.committedInstType_0::SimdFloatMisc            0      0.00%     56.00% # Class of committed instruction (Count)
system.cpu.commit.committedInstType_0::SimdFloatMult            0      0.00%     56.00% # Class of committed instruction (Count)
system.cpu.commit.committedInstType_0::SimdFloatMultAcc            0      0.00%     56.00% # Class of committed instruction (Count)
system.cpu.commit.committedInstType_0::SimdFloatSqrt            0      0.00%     56.00% # Class of committed instruction (Count)
system.cpu.commit.committedInstType_0::SimdReduceAdd            0      0.00%     56.00% # Class of committed instruction (Count)
system.cpu.commit.committedInstType_0::SimdReduceAlu            0      0.00%     56.00% # Class of committed instruction (Count)
system.cpu.commit.committedInstType_0::SimdReduceCmp            0      0.00%     56.00% # Class of committed instruction (Count)
system.cpu.commit.committedInstType_0::SimdFloatReduceAdd            0      0.00%     56.00% # Class of committed instruction (Count)
system.cpu.commit.committedInstType_0::SimdFloatReduceCmp            0      0.00%     56.00% # Class of committed instruction (Count)
system.cpu.commit.committedInstType_0::SimdAes            0      0.00%     56.00% # Class of committed instruction (Count)
system.cpu.commit.committedInstType_0::SimdAesMix            0      0.00%     56.00% # Class of committed instruction (Count)
system.cpu.commit.committedInstType_0::SimdSha1Hash            0      0.00%     56.00% # Class of committed instruction (Count)
system.cpu.commit.committedInstType_0::SimdSha1Hash2            0      0.00%     56.00% # Class of committed instruction (Count)
system.cpu.commit.committedInstType_0::SimdSha256Hash            0      0.00%     56.00% # Class of committed instruction (Count)
system.cpu.commit.committedInstType_0::SimdSha256Hash2            0      0.00%     56.00% # Class of committed instruction (Count)
system.cpu.commit.committedInstType_0::SimdShaSigma2            0      0.00%     56.00% # Class of committed instruction (Count)
system.cpu.commit.committedInstType_0::SimdShaSigma3            0      0.00%     56.00% # Class of committed instruction (Count)
system.cpu.commit.committedInstType_0::SimdPredAlu            0      0.00%     56.00% # Class of committed instruction (Count)
system.cpu.commit.committedInstType_0::MemRead       333461     39.22%     95.22% # Class of committed instruction (Count)
system.cpu.commit.committedInstType_0::MemWrite        40656      4.78%    100.00% # Class of committed instruction (Count)
system.cpu.commit.committedInstType_0::FloatMemRead            0      0.00%    100.00% # Class of committed instruction (Count)
system.cpu.commit.committedInstType_0::FloatMemWrite            0      0.00%    100.00% # Class of committed instruction (Count)
system.cpu.commit.committedInstType_0::IprAccess            0      0.00%    100.00% # Class of committed instruction (Count)
system.cpu.commit.committedInstType_0::InstPrefetch            0      0.00%    100.00% # Class of committed instruction (Count)
system.cpu.commit.committedInstType_0::total       850188                       # Class of committed instruction (Count)
system.cpu.commit.commitEligibleSamples         10019                       # number cycles where commit BW limit reached (Cycle)
system.cpu.dcache.demandHits::cpu.data         298432                       # number of demand (read+write) hits (Count)
system.cpu.dcache.demandHits::total            298432                       # number of demand (read+write) hits (Count)
system.cpu.dcache.overallHits::cpu.data        298437                       # number of overall hits (Count)
system.cpu.dcache.overallHits::total           298437                       # number of overall hits (Count)
system.cpu.dcache.demandMisses::cpu.data        10456                       # number of demand (read+write) misses (Count)
system.cpu.dcache.demandMisses::total           10456                       # number of demand (read+write) misses (Count)
system.cpu.dcache.overallMisses::cpu.data        10459                       # number of overall misses (Count)
system.cpu.dcache.overallMisses::total          10459                       # number of overall misses (Count)
system.cpu.dcache.demandMissLatency::cpu.data    530810905                       # number of demand (read+write) miss ticks (Tick)
system.cpu.dcache.demandMissLatency::total    530810905                       # number of demand (read+write) miss ticks (Tick)
system.cpu.dcache.overallMissLatency::cpu.data    530810905                       # number of overall miss ticks (Tick)
system.cpu.dcache.overallMissLatency::total    530810905                       # number of overall miss ticks (Tick)
system.cpu.dcache.demandAccesses::cpu.data       308888                       # number of demand (read+write) accesses (Count)
system.cpu.dcache.demandAccesses::total        308888                       # number of demand (read+write) accesses (Count)
system.cpu.dcache.overallAccesses::cpu.data       308896                       # number of overall (read+write) accesses (Count)
system.cpu.dcache.overallAccesses::total       308896                       # number of overall (read+write) accesses (Count)
system.cpu.dcache.demandMissRate::cpu.data     0.033850                       # miss rate for demand accesses (Ratio)
system.cpu.dcache.demandMissRate::total      0.033850                       # miss rate for demand accesses (Ratio)
system.cpu.dcache.overallMissRate::cpu.data     0.033859                       # miss rate for overall accesses (Ratio)
system.cpu.dcache.overallMissRate::total     0.033859                       # miss rate for overall accesses (Ratio)
system.cpu.dcache.demandAvgMissLatency::cpu.data 50766.153883                       # average overall miss latency ((Cycle/Count))
system.cpu.dcache.demandAvgMissLatency::total 50766.153883                       # average overall miss latency ((Cycle/Count))
system.cpu.dcache.overallAvgMissLatency::cpu.data 50751.592408                       # average overall miss latency ((Cycle/Count))
system.cpu.dcache.overallAvgMissLatency::total 50751.592408                       # average overall miss latency ((Cycle/Count))
system.cpu.dcache.blockedCycles::no_mshrs        41947                       # number of cycles access was blocked (Cycle)
system.cpu.dcache.blockedCycles::no_targets            0                       # number of cycles access was blocked (Cycle)
system.cpu.dcache.blockedCauses::no_mshrs         1911                       # number of times access was blocked (Count)
system.cpu.dcache.blockedCauses::no_targets            0                       # number of times access was blocked (Count)
system.cpu.dcache.avgBlocked::no_mshrs      21.950288                       # average number of cycles each access was blocked ((Cycle/Count))
system.cpu.dcache.avgBlocked::no_targets          nan                       # average number of cycles each access was blocked ((Cycle/Count))
system.cpu.dcache.writebacks::writebacks         1512                       # number of writebacks (Count)
system.cpu.dcache.writebacks::total              1512                       # number of writebacks (Count)
system.cpu.dcache.demandMshrHits::cpu.data         7554                       # number of demand (read+write) MSHR hits (Count)
system.cpu.dcache.demandMshrHits::total          7554                       # number of demand (read+write) MSHR hits (Count)
system.cpu.dcache.overallMshrHits::cpu.data         7554                       # number of overall MSHR hits (Count)
system.cpu.dcache.overallMshrHits::total         7554                       # number of overall MSHR hits (Count)
system.cpu.dcache.demandMshrMisses::cpu.data         2902                       # number of demand (read+write) MSHR misses (Count)
system.cpu.dcache.demandMshrMisses::total         2902                       # number of demand (read+write) MSHR misses (Count)
system.cpu.dcache.overallMshrMisses::cpu.data         2905                       # number of overall MSHR misses (Count)
system.cpu.dcache.overallMshrMisses::total         2905                       # number of overall MSHR misses (Count)
system.cpu.dcache.demandMshrMissLatency::cpu.data    141108980                       # number of demand (read+write) MSHR miss ticks (Tick)
system.cpu.dcache.demandMshrMissLatency::total    141108980                       # number of demand (read+write) MSHR miss ticks (Tick)
system.cpu.dcache.overallMshrMissLatency::cpu.data    141343980                       # number of overall MSHR miss ticks (Tick)
system.cpu.dcache.overallMshrMissLatency::total    141343980                       # number of overall MSHR miss ticks (Tick)
system.cpu.dcache.demandMshrMissRate::cpu.data     0.009395                       # mshr miss ratio for demand accesses (Ratio)
system.cpu.dcache.demandMshrMissRate::total     0.009395                       # mshr miss ratio for demand accesses (Ratio)
system.cpu.dcache.overallMshrMissRate::cpu.data     0.009404                       # mshr miss ratio for overall accesses (Ratio)
system.cpu.dcache.overallMshrMissRate::total     0.009404                       # mshr miss ratio for overall accesses (Ratio)
system.cpu.dcache.demandAvgMshrMissLatency::cpu.data 48624.734666                       # average overall mshr miss latency ((Cycle/Count))
system.cpu.dcache.demandAvgMshrMissLatency::total 48624.734666                       # average overall mshr miss latency ((Cycle/Count))
system.cpu.dcache.overallAvgMshrMissLatency::cpu.data 48655.414802                       # average overall mshr miss latency ((Cycle/Count))
system.cpu.dcache.overallAvgMshrMissLatency::total 48655.414802                       # average overall mshr miss latency ((Cycle/Count))
system.cpu.dcache.replacements                   2650                       # number of replacements (Count)
system.cpu.dcache.LoadLockedReq.hits::cpu.data            7                       # number of LoadLockedReq hits (Count)
system.cpu.dcache.LoadLockedReq.hits::total            7                       # number of LoadLockedReq hits (Count)
system.cpu.dcache.LoadLockedReq.misses::cpu.data            1                       # number of LoadLockedReq misses (Count)
system.cpu.dcache.LoadLockedReq.misses::total            1                       # number of LoadLockedReq misses (Count)
system.cpu.dcache.LoadLockedReq.missLatency::cpu.data        58500                       # number of LoadLockedReq miss ticks (Tick)
system.cpu.dcache.LoadLockedReq.missLatency::total        58500                       # number of LoadLockedReq miss ticks (Tick)
system.cpu.dcache.LoadLockedReq.accesses::cpu.data            8                       # number of LoadLockedReq accesses(hits+misses) (Count)
system.cpu.dcache.LoadLockedReq.accesses::total            8                       # number of LoadLockedReq accesses(hits+misses) (Count)
system.cpu.dcache.LoadLockedReq.missRate::cpu.data     0.125000                       # miss rate for LoadLockedReq accesses (Ratio)
system.cpu.dcache.LoadLockedReq.missRate::total     0.125000                       # miss rate for LoadLockedReq accesses (Ratio)
system.cpu.dcache.LoadLockedReq.avgMissLatency::cpu.data        58500                       # average LoadLockedReq miss latency ((Tick/Count))
system.cpu.dcache.LoadLockedReq.avgMissLatency::total        58500                       # average LoadLockedReq miss latency ((Tick/Count))
system.cpu.dcache.LoadLockedReq.mshrHits::cpu.data            1                       # number of LoadLockedReq MSHR hits (Count)
system.cpu.dcache.LoadLockedReq.mshrHits::total            1                       # number of LoadLockedReq MSHR hits (Count)
system.cpu.dcache.ReadReq.hits::cpu.data       263548                       # number of ReadReq hits (Count)
system.cpu.dcache.ReadReq.hits::total          263548                       # number of ReadReq hits (Count)
system.cpu.dcache.ReadReq.misses::cpu.data         4697                       # number of ReadReq misses (Count)
system.cpu.dcache.ReadReq.misses::total          4697                       # number of ReadReq misses (Count)
system.cpu.dcache.ReadReq.missLatency::cpu.data    250481000                       # number of ReadReq miss ticks (Tick)
system.cpu.dcache.ReadReq.missLatency::total    250481000                       # number of ReadReq miss ticks (Tick)
system.cpu.dcache.ReadReq.accesses::cpu.data       268245                       # number of ReadReq accesses(hits+misses) (Count)
system.cpu.dcache.ReadReq.accesses::total       268245                       # number of ReadReq accesses(hits+misses) (Count)
system.cpu.dcache.ReadReq.missRate::cpu.data     0.017510                       # miss rate for ReadReq accesses (Ratio)
system.cpu.dcache.ReadReq.missRate::total     0.017510                       # miss rate for ReadReq accesses (Ratio)
system.cpu.dcache.ReadReq.avgMissLatency::cpu.data 53327.868852                       # average ReadReq miss latency ((Tick/Count))
system.cpu.dcache.ReadReq.avgMissLatency::total 53327.868852                       # average ReadReq miss latency ((Tick/Count))
system.cpu.dcache.ReadReq.mshrHits::cpu.data         3461                       # number of ReadReq MSHR hits (Count)
system.cpu.dcache.ReadReq.mshrHits::total         3461                       # number of ReadReq MSHR hits (Count)
system.cpu.dcache.ReadReq.mshrMisses::cpu.data         1236                       # number of ReadReq MSHR misses (Count)
system.cpu.dcache.ReadReq.mshrMisses::total         1236                       # number of ReadReq MSHR misses (Count)
system.cpu.dcache.ReadReq.mshrMissLatency::cpu.data     80618500                       # number of ReadReq MSHR miss ticks (Tick)
system.cpu.dcache.ReadReq.mshrMissLatency::total     80618500                       # number of ReadReq MSHR miss ticks (Tick)
system.cpu.dcache.ReadReq.mshrMissRate::cpu.data     0.004608                       # mshr miss rate for ReadReq accesses (Ratio)
system.cpu.dcache.ReadReq.mshrMissRate::total     0.004608                       # mshr miss rate for ReadReq accesses (Ratio)
system.cpu.dcache.ReadReq.avgMshrMissLatency::cpu.data 65225.323625                       # average ReadReq mshr miss latency ((Tick/Count))
system.cpu.dcache.ReadReq.avgMshrMissLatency::total 65225.323625                       # average ReadReq mshr miss latency ((Tick/Count))
system.cpu.dcache.SoftPFReq.hits::cpu.data            5                       # number of SoftPFReq hits (Count)
system.cpu.dcache.SoftPFReq.hits::total             5                       # number of SoftPFReq hits (Count)
system.cpu.dcache.SoftPFReq.misses::cpu.data            3                       # number of SoftPFReq misses (Count)
system.cpu.dcache.SoftPFReq.misses::total            3                       # number of SoftPFReq misses (Count)
system.cpu.dcache.SoftPFReq.accesses::cpu.data            8                       # number of SoftPFReq accesses(hits+misses) (Count)
system.cpu.dcache.SoftPFReq.accesses::total            8                       # number of SoftPFReq accesses(hits+misses) (Count)
system.cpu.dcache.SoftPFReq.missRate::cpu.data     0.375000                       # miss rate for SoftPFReq accesses (Ratio)
system.cpu.dcache.SoftPFReq.missRate::total     0.375000                       # miss rate for SoftPFReq accesses (Ratio)
system.cpu.dcache.SoftPFReq.mshrMisses::cpu.data            3                       # number of SoftPFReq MSHR misses (Count)
system.cpu.dcache.SoftPFReq.mshrMisses::total            3                       # number of SoftPFReq MSHR misses (Count)
system.cpu.dcache.SoftPFReq.mshrMissLatency::cpu.data       235000                       # number of SoftPFReq MSHR miss ticks (Tick)
system.cpu.dcache.SoftPFReq.mshrMissLatency::total       235000                       # number of SoftPFReq MSHR miss ticks (Tick)
system.cpu.dcache.SoftPFReq.mshrMissRate::cpu.data     0.375000                       # mshr miss rate for SoftPFReq accesses (Ratio)
system.cpu.dcache.SoftPFReq.mshrMissRate::total     0.375000                       # mshr miss rate for SoftPFReq accesses (Ratio)
system.cpu.dcache.SoftPFReq.avgMshrMissLatency::cpu.data 78333.333333                       # average SoftPFReq mshr miss latency ((Tick/Count))
system.cpu.dcache.SoftPFReq.avgMshrMissLatency::total 78333.333333                       # average SoftPFReq mshr miss latency ((Tick/Count))
system.cpu.dcache.StoreCondReq.hits::cpu.data            4                       # number of StoreCondReq hits (Count)
system.cpu.dcache.StoreCondReq.hits::total            4                       # number of StoreCondReq hits (Count)
system.cpu.dcache.StoreCondReq.accesses::cpu.data            4                       # number of StoreCondReq accesses(hits+misses) (Count)
system.cpu.dcache.StoreCondReq.accesses::total            4                       # number of StoreCondReq accesses(hits+misses) (Count)
system.cpu.dcache.SwapReq.hits::cpu.data           13                       # number of SwapReq hits (Count)
system.cpu.dcache.SwapReq.hits::total              13                       # number of SwapReq hits (Count)
system.cpu.dcache.SwapReq.misses::cpu.data            1                       # number of SwapReq misses (Count)
system.cpu.dcache.SwapReq.misses::total             1                       # number of SwapReq misses (Count)
system.cpu.dcache.SwapReq.missLatency::cpu.data        65000                       # number of SwapReq miss ticks (Tick)
system.cpu.dcache.SwapReq.missLatency::total        65000                       # number of SwapReq miss ticks (Tick)
system.cpu.dcache.SwapReq.accesses::cpu.data           14                       # number of SwapReq accesses(hits+misses) (Count)
system.cpu.dcache.SwapReq.accesses::total           14                       # number of SwapReq accesses(hits+misses) (Count)
system.cpu.dcache.SwapReq.missRate::cpu.data     0.071429                       # miss rate for SwapReq accesses (Ratio)
system.cpu.dcache.SwapReq.missRate::total     0.071429                       # miss rate for SwapReq accesses (Ratio)
system.cpu.dcache.SwapReq.avgMissLatency::cpu.data        65000                       # average SwapReq miss latency ((Tick/Count))
system.cpu.dcache.SwapReq.avgMissLatency::total        65000                       # average SwapReq miss latency ((Tick/Count))
system.cpu.dcache.SwapReq.mshrMisses::cpu.data            1                       # number of SwapReq MSHR misses (Count)
system.cpu.dcache.SwapReq.mshrMisses::total            1                       # number of SwapReq MSHR misses (Count)
system.cpu.dcache.SwapReq.mshrMissLatency::cpu.data        64000                       # number of SwapReq MSHR miss ticks (Tick)
system.cpu.dcache.SwapReq.mshrMissLatency::total        64000                       # number of SwapReq MSHR miss ticks (Tick)
system.cpu.dcache.SwapReq.mshrMissRate::cpu.data     0.071429                       # mshr miss rate for SwapReq accesses (Ratio)
system.cpu.dcache.SwapReq.mshrMissRate::total     0.071429                       # mshr miss rate for SwapReq accesses (Ratio)
system.cpu.dcache.SwapReq.avgMshrMissLatency::cpu.data        64000                       # average SwapReq mshr miss latency ((Tick/Count))
system.cpu.dcache.SwapReq.avgMshrMissLatency::total        64000                       # average SwapReq mshr miss latency ((Tick/Count))
system.cpu.dcache.WriteLineReq.hits::cpu.data            1                       # number of WriteLineReq hits (Count)
system.cpu.dcache.WriteLineReq.hits::total            1                       # number of WriteLineReq hits (Count)
system.cpu.dcache.WriteLineReq.misses::cpu.data         1014                       # number of WriteLineReq misses (Count)
system.cpu.dcache.WriteLineReq.misses::total         1014                       # number of WriteLineReq misses (Count)
system.cpu.dcache.WriteLineReq.missLatency::cpu.data     16603672                       # number of WriteLineReq miss ticks (Tick)
system.cpu.dcache.WriteLineReq.missLatency::total     16603672                       # number of WriteLineReq miss ticks (Tick)
system.cpu.dcache.WriteLineReq.accesses::cpu.data         1015                       # number of WriteLineReq accesses(hits+misses) (Count)
system.cpu.dcache.WriteLineReq.accesses::total         1015                       # number of WriteLineReq accesses(hits+misses) (Count)
system.cpu.dcache.WriteLineReq.missRate::cpu.data     0.999015                       # miss rate for WriteLineReq accesses (Ratio)
system.cpu.dcache.WriteLineReq.missRate::total     0.999015                       # miss rate for WriteLineReq accesses (Ratio)
system.cpu.dcache.WriteLineReq.avgMissLatency::cpu.data 16374.429980                       # average WriteLineReq miss latency ((Tick/Count))
system.cpu.dcache.WriteLineReq.avgMissLatency::total 16374.429980                       # average WriteLineReq miss latency ((Tick/Count))
system.cpu.dcache.WriteLineReq.mshrMisses::cpu.data         1014                       # number of WriteLineReq MSHR misses (Count)
system.cpu.dcache.WriteLineReq.mshrMisses::total         1014                       # number of WriteLineReq MSHR misses (Count)
system.cpu.dcache.WriteLineReq.mshrMissLatency::cpu.data     15589672                       # number of WriteLineReq MSHR miss ticks (Tick)
system.cpu.dcache.WriteLineReq.mshrMissLatency::total     15589672                       # number of WriteLineReq MSHR miss ticks (Tick)
system.cpu.dcache.WriteLineReq.mshrMissRate::cpu.data     0.999015                       # mshr miss rate for WriteLineReq accesses (Ratio)
system.cpu.dcache.WriteLineReq.mshrMissRate::total     0.999015                       # mshr miss rate for WriteLineReq accesses (Ratio)
system.cpu.dcache.WriteLineReq.avgMshrMissLatency::cpu.data 15374.429980                       # average WriteLineReq mshr miss latency ((Tick/Count))
system.cpu.dcache.WriteLineReq.avgMshrMissLatency::total 15374.429980                       # average WriteLineReq mshr miss latency ((Tick/Count))
system.cpu.dcache.WriteReq.hits::cpu.data        34883                       # number of WriteReq hits (Count)
system.cpu.dcache.WriteReq.hits::total          34883                       # number of WriteReq hits (Count)
system.cpu.dcache.WriteReq.misses::cpu.data         4745                       # number of WriteReq misses (Count)
system.cpu.dcache.WriteReq.misses::total         4745                       # number of WriteReq misses (Count)
system.cpu.dcache.WriteReq.missLatency::cpu.data    263726233                       # number of WriteReq miss ticks (Tick)
system.cpu.dcache.WriteReq.missLatency::total    263726233                       # number of WriteReq miss ticks (Tick)
system.cpu.dcache.WriteReq.accesses::cpu.data        39628                       # number of WriteReq accesses(hits+misses) (Count)
system.cpu.dcache.WriteReq.accesses::total        39628                       # number of WriteReq accesses(hits+misses) (Count)
system.cpu.dcache.WriteReq.missRate::cpu.data     0.119739                       # miss rate for WriteReq accesses (Ratio)
system.cpu.dcache.WriteReq.missRate::total     0.119739                       # miss rate for WriteReq accesses (Ratio)
system.cpu.dcache.WriteReq.avgMissLatency::cpu.data 55579.817281                       # average WriteReq miss latency ((Tick/Count))
system.cpu.dcache.WriteReq.avgMissLatency::total 55579.817281                       # average WriteReq miss latency ((Tick/Count))
system.cpu.dcache.WriteReq.mshrHits::cpu.data         4093                       # number of WriteReq MSHR hits (Count)
system.cpu.dcache.WriteReq.mshrHits::total         4093                       # number of WriteReq MSHR hits (Count)
system.cpu.dcache.WriteReq.mshrMisses::cpu.data          652                       # number of WriteReq MSHR misses (Count)
system.cpu.dcache.WriteReq.mshrMisses::total          652                       # number of WriteReq MSHR misses (Count)
system.cpu.dcache.WriteReq.mshrMissLatency::cpu.data     44900808                       # number of WriteReq MSHR miss ticks (Tick)
system.cpu.dcache.WriteReq.mshrMissLatency::total     44900808                       # number of WriteReq MSHR miss ticks (Tick)
system.cpu.dcache.WriteReq.mshrMissRate::cpu.data     0.016453                       # mshr miss rate for WriteReq accesses (Ratio)
system.cpu.dcache.WriteReq.mshrMissRate::total     0.016453                       # mshr miss rate for WriteReq accesses (Ratio)
system.cpu.dcache.WriteReq.avgMshrMissLatency::cpu.data 68866.269939                       # average WriteReq mshr miss latency ((Tick/Count))
system.cpu.dcache.WriteReq.avgMshrMissLatency::total 68866.269939                       # average WriteReq mshr miss latency ((Tick/Count))
system.cpu.dcache.power_state.pwrStateResidencyTicks::UNDEFINED    263116500                       # Cumulative time (in ticks) in various power states (Tick)
system.cpu.dcache.tags.tagsInUse           245.931563                       # Average ticks per tags in use ((Tick/Count))
system.cpu.dcache.tags.totalRefs               301367                       # Total number of references to valid blocks. (Count)
system.cpu.dcache.tags.sampledRefs               2906                       # Sample count of references to valid blocks. (Count)
system.cpu.dcache.tags.avgRefs             103.705093                       # Average number of references to valid blocks. ((Count/Count))
system.cpu.dcache.tags.warmupTick              145000                       # The tick when the warmup percentage was hit. (Tick)
system.cpu.dcache.tags.occupancies::cpu.data   245.931563                       # Average occupied blocks per tick, per requestor ((Count/Tick))
system.cpu.dcache.tags.avgOccs::cpu.data     0.960670                       # Average percentage of cache occupancy ((Ratio/Tick))
system.cpu.dcache.tags.avgOccs::total        0.960670                       # Average percentage of cache occupancy ((Ratio/Tick))
system.cpu.dcache.tags.occupanciesTaskId::1024          256                       # Occupied blocks per task id (Count)
system.cpu.dcache.tags.ageTaskId_1024::0           76                       # Occupied blocks per task id, per block age (Count)
system.cpu.dcache.tags.ageTaskId_1024::1          180                       # Occupied blocks per task id, per block age (Count)
system.cpu.dcache.tags.ratioOccsTaskId::1024            1                       # Ratio of occupied blocks and all blocks, per task id (Ratio)
system.cpu.dcache.tags.tagAccesses             620750                       # Number of tag accesses (Count)
system.cpu.dcache.tags.dataAccesses            620750                       # Number of data accesses (Count)
system.cpu.dcache.tags.power_state.pwrStateResidencyTicks::UNDEFINED    263116500                       # Cumulative time (in ticks) in various power states (Tick)
system.cpu.decode.idleCycles                   145928                       # Number of cycles decode is idle (Cycle)
system.cpu.decode.blockedCycles                102260                       # Number of cycles decode is blocked (Cycle)
system.cpu.decode.runCycles                    232205                       # Number of cycles decode is running (Cycle)
system.cpu.decode.unblockCycles                  3812                       # Number of cycles decode is unblocking (Cycle)
system.cpu.decode.squashCycles                   1329                       # Number of cycles decode is squashing (Cycle)
system.cpu.decode.branchResolved               169467                       # Number of times decode resolved a branch (Count)
system.cpu.decode.branchMispred                   328                       # Number of times decode detected a branch misprediction (Count)
system.cpu.decode.decodedInsts                 887877                       # Number of instructions handled by decode (Count)
system.cpu.decode.squashedInsts                  1126                       # Number of squashed instructions handled by decode (Count)
system.cpu.fetch.icacheStallCycles             153139                       # Number of cycles fetch is stalled on an Icache miss (Cycle)
system.cpu.fetch.insts                         886969                       # Number of instructions fetch has processed (Count)
system.cpu.fetch.branches                      175741                       # Number of branches that fetch encountered (Count)
system.cpu.fetch.predictedBranches             170579                       # Number of branches that fetch has predicted taken (Count)
system.cpu.fetch.cycles                        330743                       # Number of cycles fetch has run and was not squashing or blocked (Cycle)
system.cpu.fetch.squashCycles                    3304                       # Number of cycles fetch has spent squashing (Cycle)
system.cpu.fetch.cacheLines                    139565                       # Number of cache lines fetched (Count)
system.cpu.fetch.icacheSquashes                  1129                       # Number of outstanding Icache misses that were squashed (Count)
system.cpu.fetch.nisnDist::samples             485534                       # Number of instructions fetched each cycle (Total) (Count)
system.cpu.fetch.nisnDist::mean              1.850762                       # Number of instructions fetched each cycle (Total) (Count)
system.cpu.fetch.nisnDist::stdev             2.356375                       # Number of instructions fetched each cycle (Total) (Count)
system.cpu.fetch.nisnDist::underflows               0      0.00%      0.00% # Number of instructions fetched each cycle (Total) (Count)
system.cpu.fetch.nisnDist::0                   241479     49.73%     49.73% # Number of instructions fetched each cycle (Total) (Count)
system.cpu.fetch.nisnDist::1                    34054      7.01%     56.75% # Number of instructions fetched each cycle (Total) (Count)
system.cpu.fetch.nisnDist::2                    66907     13.78%     70.53% # Number of instructions fetched each cycle (Total) (Count)
system.cpu.fetch.nisnDist::3                    34071      7.02%     77.55% # Number of instructions fetched each cycle (Total) (Count)
system.cpu.fetch.nisnDist::4                     2545      0.52%     78.07% # Number of instructions fetched each cycle (Total) (Count)
system.cpu.fetch.nisnDist::5                    65958     13.58%     91.65% # Number of instructions fetched each cycle (Total) (Count)
system.cpu.fetch.nisnDist::6                      904      0.19%     91.84% # Number of instructions fetched each cycle (Total) (Count)
system.cpu.fetch.nisnDist::7                    33795      6.96%     98.80% # Number of instructions fetched each cycle (Total) (Count)
system.cpu.fetch.nisnDist::8                     5821      1.20%    100.00% # Number of instructions fetched each cycle (Total) (Count)
system.cpu.fetch.nisnDist::overflows                0      0.00%    100.00% # Number of instructions fetched each cycle (Total) (Count)
system.cpu.fetch.nisnDist::min_value                0                       # Number of instructions fetched each cycle (Total) (Count)
system.cpu.fetch.nisnDist::max_value                8                       # Number of instructions fetched each cycle (Total) (Count)
system.cpu.fetch.nisnDist::total               485534                       # Number of instructions fetched each cycle (Total) (Count)
system.cpu.fetch.branchRate                  0.333960                       # Number of branch fetches per cycle (Ratio)
system.cpu.fetch.rate                        1.685503                       # Number of inst fetches per cycle ((Count/Cycle))
system.cpu.icache.demandHits::cpu.inst         138696                       # number of demand (read+write) hits (Count)
system.cpu.icache.demandHits::total            138696                       # number of demand (read+write) hits (Count)
system.cpu.icache.overallHits::cpu.inst        138696                       # number of overall hits (Count)
system.cpu.icache.overallHits::total           138696                       # number of overall hits (Count)
system.cpu.icache.demandMisses::cpu.inst          869                       # number of demand (read+write) misses (Count)
system.cpu.icache.demandMisses::total             869                       # number of demand (read+write) misses (Count)
system.cpu.icache.overallMisses::cpu.inst          869                       # number of overall misses (Count)
system.cpu.icache.overallMisses::total            869                       # number of overall misses (Count)
system.cpu.icache.demandMissLatency::cpu.inst     53676000                       # number of demand (read+write) miss ticks (Tick)
system.cpu.icache.demandMissLatency::total     53676000                       # number of demand (read+write) miss ticks (Tick)
system.cpu.icache.overallMissLatency::cpu.inst     53676000                       # number of overall miss ticks (Tick)
system.cpu.icache.overallMissLatency::total     53676000                       # number of overall miss ticks (Tick)
system.cpu.icache.demandAccesses::cpu.inst       139565                       # number of demand (read+write) accesses (Count)
system.cpu.icache.demandAccesses::total        139565                       # number of demand (read+write) accesses (Count)
system.cpu.icache.overallAccesses::cpu.inst       139565                       # number of overall (read+write) accesses (Count)
system.cpu.icache.overallAccesses::total       139565                       # number of overall (read+write) accesses (Count)
system.cpu.icache.demandMissRate::cpu.inst     0.006226                       # miss rate for demand accesses (Ratio)
system.cpu.icache.demandMissRate::total      0.006226                       # miss rate for demand accesses (Ratio)
system.cpu.icache.overallMissRate::cpu.inst     0.006226                       # miss rate for overall accesses (Ratio)
system.cpu.icache.overallMissRate::total     0.006226                       # miss rate for overall accesses (Ratio)
system.cpu.icache.demandAvgMissLatency::cpu.inst 61767.548907                       # average overall miss latency ((Cycle/Count))
system.cpu.icache.demandAvgMissLatency::total 61767.548907                       # average overall miss latency ((Cycle/Count))
system.cpu.icache.overallAvgMissLatency::cpu.inst 61767.548907                       # average overall miss latency ((Cycle/Count))
system.cpu.icache.overallAvgMissLatency::total 61767.548907                       # average overall miss latency ((Cycle/Count))
system.cpu.icache.blockedCycles::no_mshrs          558                       # number of cycles access was blocked (Cycle)
system.cpu.icache.blockedCycles::no_targets            0                       # number of cycles access was blocked (Cycle)
system.cpu.icache.blockedCauses::no_mshrs            8                       # number of times access was blocked (Count)
system.cpu.icache.blockedCauses::no_targets            0                       # number of times access was blocked (Count)
system.cpu.icache.avgBlocked::no_mshrs      69.750000                       # average number of cycles each access was blocked ((Cycle/Count))
system.cpu.icache.avgBlocked::no_targets          nan                       # average number of cycles each access was blocked ((Cycle/Count))
system.cpu.icache.writebacks::writebacks          209                       # number of writebacks (Count)
system.cpu.icache.writebacks::total               209                       # number of writebacks (Count)
system.cpu.icache.demandMshrHits::cpu.inst          217                       # number of demand (read+write) MSHR hits (Count)
system.cpu.icache.demandMshrHits::total           217                       # number of demand (read+write) MSHR hits (Count)
system.cpu.icache.overallMshrHits::cpu.inst          217                       # number of overall MSHR hits (Count)
system.cpu.icache.overallMshrHits::total          217                       # number of overall MSHR hits (Count)
system.cpu.icache.demandMshrMisses::cpu.inst          652                       # number of demand (read+write) MSHR misses (Count)
system.cpu.icache.demandMshrMisses::total          652                       # number of demand (read+write) MSHR misses (Count)
system.cpu.icache.overallMshrMisses::cpu.inst          652                       # number of overall MSHR misses (Count)
system.cpu.icache.overallMshrMisses::total          652                       # number of overall MSHR misses (Count)
system.cpu.icache.demandMshrMissLatency::cpu.inst     42471500                       # number of demand (read+write) MSHR miss ticks (Tick)
system.cpu.icache.demandMshrMissLatency::total     42471500                       # number of demand (read+write) MSHR miss ticks (Tick)
system.cpu.icache.overallMshrMissLatency::cpu.inst     42471500                       # number of overall MSHR miss ticks (Tick)
system.cpu.icache.overallMshrMissLatency::total     42471500                       # number of overall MSHR miss ticks (Tick)
system.cpu.icache.demandMshrMissRate::cpu.inst     0.004672                       # mshr miss ratio for demand accesses (Ratio)
system.cpu.icache.demandMshrMissRate::total     0.004672                       # mshr miss ratio for demand accesses (Ratio)
system.cpu.icache.overallMshrMissRate::cpu.inst     0.004672                       # mshr miss ratio for overall accesses (Ratio)
system.cpu.icache.overallMshrMissRate::total     0.004672                       # mshr miss ratio for overall accesses (Ratio)
system.cpu.icache.demandAvgMshrMissLatency::cpu.inst 65140.337423                       # average overall mshr miss latency ((Cycle/Count))
system.cpu.icache.demandAvgMshrMissLatency::total 65140.337423                       # average overall mshr miss latency ((Cycle/Count))
system.cpu.icache.overallAvgMshrMissLatency::cpu.inst 65140.337423                       # average overall mshr miss latency ((Cycle/Count))
system.cpu.icache.overallAvgMshrMissLatency::total 65140.337423                       # average overall mshr miss latency ((Cycle/Count))
system.cpu.icache.replacements                    209                       # number of replacements (Count)
system.cpu.icache.ReadReq.hits::cpu.inst       138696                       # number of ReadReq hits (Count)
system.cpu.icache.ReadReq.hits::total          138696                       # number of ReadReq hits (Count)
system.cpu.icache.ReadReq.misses::cpu.inst          869                       # number of ReadReq misses (Count)
system.cpu.icache.ReadReq.misses::total           869                       # number of ReadReq misses (Count)
system.cpu.icache.ReadReq.missLatency::cpu.inst     53676000                       # number of ReadReq miss ticks (Tick)
system.cpu.icache.ReadReq.missLatency::total     53676000                       # number of ReadReq miss ticks (Tick)
system.cpu.icache.ReadReq.accesses::cpu.inst       139565                       # number of ReadReq accesses(hits+misses) (Count)
system.cpu.icache.ReadReq.accesses::total       139565                       # number of ReadReq accesses(hits+misses) (Count)
system.cpu.icache.ReadReq.missRate::cpu.inst     0.006226                       # miss rate for ReadReq accesses (Ratio)
system.cpu.icache.ReadReq.missRate::total     0.006226                       # miss rate for ReadReq accesses (Ratio)
system.cpu.icache.ReadReq.avgMissLatency::cpu.inst 61767.548907                       # average ReadReq miss latency ((Tick/Count))
system.cpu.icache.ReadReq.avgMissLatency::total 61767.548907                       # average ReadReq miss latency ((Tick/Count))
system.cpu.icache.ReadReq.mshrHits::cpu.inst          217                       # number of ReadReq MSHR hits (Count)
system.cpu.icache.ReadReq.mshrHits::total          217                       # number of ReadReq MSHR hits (Count)
system.cpu.icache.ReadReq.mshrMisses::cpu.inst          652                       # number of ReadReq MSHR misses (Count)
system.cpu.icache.ReadReq.mshrMisses::total          652                       # number of ReadReq MSHR misses (Count)
system.cpu.icache.ReadReq.mshrMissLatency::cpu.inst     42471500                       # number of ReadReq MSHR miss ticks (Tick)
system.cpu.icache.ReadReq.mshrMissLatency::total     42471500                       # number of ReadReq MSHR miss ticks (Tick)
system.cpu.icache.ReadReq.mshrMissRate::cpu.inst     0.004672                       # mshr miss rate for ReadReq accesses (Ratio)
system.cpu.icache.ReadReq.mshrMissRate::total     0.004672                       # mshr miss rate for ReadReq accesses (Ratio)
system.cpu.icache.ReadReq.avgMshrMissLatency::cpu.inst 65140.337423                       # average ReadReq mshr miss latency ((Tick/Count))
system.cpu.icache.ReadReq.avgMshrMissLatency::total 65140.337423                       # average ReadReq mshr miss latency ((Tick/Count))
system.cpu.icache.power_state.pwrStateResidencyTicks::UNDEFINED    263116500                       # Cumulative time (in ticks) in various power states (Tick)
system.cpu.icache.tags.tagsInUse           323.670473                       # Average ticks per tags in use ((Tick/Count))
system.cpu.icache.tags.totalRefs               139347                       # Total number of references to valid blocks. (Count)
system.cpu.icache.tags.sampledRefs                651                       # Sample count of references to valid blocks. (Count)
system.cpu.icache.tags.avgRefs             214.050691                       # Average number of references to valid blocks. ((Count/Count))
system.cpu.icache.tags.warmupTick               77000                       # The tick when the warmup percentage was hit. (Tick)
system.cpu.icache.tags.occupancies::cpu.inst   323.670473                       # Average occupied blocks per tick, per requestor ((Count/Tick))
system.cpu.icache.tags.avgOccs::cpu.inst     0.632169                       # Average percentage of cache occupancy ((Ratio/Tick))
system.cpu.icache.tags.avgOccs::total        0.632169                       # Average percentage of cache occupancy ((Ratio/Tick))
system.cpu.icache.tags.occupanciesTaskId::1024          442                       # Occupied blocks per task id (Count)
system.cpu.icache.tags.ageTaskId_1024::0          156                       # Occupied blocks per task id, per block age (Count)
system.cpu.icache.tags.ageTaskId_1024::1           81                       # Occupied blocks per task id, per block age (Count)
system.cpu.icache.tags.ageTaskId_1024::2          205                       # Occupied blocks per task id, per block age (Count)
system.cpu.icache.tags.ratioOccsTaskId::1024     0.863281                       # Ratio of occupied blocks and all blocks, per task id (Ratio)
system.cpu.icache.tags.tagAccesses             279781                       # Number of tag accesses (Count)
system.cpu.icache.tags.dataAccesses            279781                       # Number of data accesses (Count)
system.cpu.icache.tags.power_state.pwrStateResidencyTicks::UNDEFINED    263116500                       # Cumulative time (in ticks) in various power states (Tick)
system.cpu.iew.idleCycles                           0                       # Number of cycles IEW is idle (Cycle)
system.cpu.iew.squashCycles                      1329                       # Number of cycles IEW is squashing (Cycle)
system.cpu.iew.blockCycles                       3049                       # Number of cycles IEW is blocking (Cycle)
system.cpu.iew.unblockCycles                    27264                       # Number of cycles IEW is unblocking (Cycle)
system.cpu.iew.dispatchedInsts                 878356                       # Number of instructions dispatched to IQ (Count)
system.cpu.iew.dispSquashedInsts                  200                       # Number of squashed instructions skipped by dispatch (Count)
system.cpu.iew.dispLoadInsts                   342144                       # Number of dispatched load instructions (Count)
system.cpu.iew.dispStoreInsts                   43242                       # Number of dispatched store instructions (Count)
system.cpu.iew.dispNonSpecInsts                    93                       # Number of dispatched non-speculative instructions (Count)
system.cpu.iew.iqFullEvents                         6                       # Number of times the IQ has become full, causing a stall (Count)
[...]
system.mem_ctrls.dram.bwRead::cpu.inst      158348108                       # Total read bandwidth from this memory ((Byte/Second))
system.mem_ctrls.dram.bwRead::cpu.data      450720498                       # Total read bandwidth from this memory ((Byte/Second))
system.mem_ctrls.dram.bwRead::total         609068606                       # Total read bandwidth from this memory ((Byte/Second))
system.mem_ctrls.dram.bwInstRead::cpu.inst    158348108                       # Instruction read bandwidth from this memory ((Byte/Second))
system.mem_ctrls.dram.bwInstRead::total     158348108                       # Instruction read bandwidth from this memory ((Byte/Second))
system.mem_ctrls.dram.bwWrite::writebacks    367776251                       # Write bandwidth from this memory ((Byte/Second))
system.mem_ctrls.dram.bwWrite::total        367776251                       # Write bandwidth from this memory ((Byte/Second))
system.mem_ctrls.dram.bwTotal::writebacks    367776251                       # Total bandwidth to/from this memory ((Byte/Second))
system.mem_ctrls.dram.bwTotal::cpu.inst     158348108                       # Total bandwidth to/from this memory ((Byte/Second))
system.mem_ctrls.dram.bwTotal::cpu.data     450720498                       # Total bandwidth to/from this memory ((Byte/Second))
system.mem_ctrls.dram.bwTotal::total        976844858                       # Total bandwidth to/from this memory ((Byte/Second))
system.mem_ctrls.dram.readBursts                 2472                       # Number of DRAM read bursts (Count)
system.mem_ctrls.dram.writeBursts                1698                       # Number of DRAM write bursts (Count)
system.mem_ctrls.dram.perBankRdBursts::0          141                       # Per bank write bursts (Count)
system.mem_ctrls.dram.perBankRdBursts::1          204                       # Per bank write bursts (Count)
system.mem_ctrls.dram.perBankRdBursts::2          137                       # Per bank write bursts (Count)
system.mem_ctrls.dram.perBankRdBursts::3           55                       # Per bank write bursts (Count)
system.mem_ctrls.dram.perBankRdBursts::4          269                       # Per bank write bursts (Count)
system.mem_ctrls.dram.perBankRdBursts::5          277                       # Per bank write bursts (Count)
system.mem_ctrls.dram.perBankRdBursts::6          251                       # Per bank write bursts (Count)
system.mem_ctrls.dram.perBankRdBursts::7          245                       # Per bank write bursts (Count)
system.mem_ctrls.dram.perBankRdBursts::8          161                       # Per bank write bursts (Count)
system.mem_ctrls.dram.perBankRdBursts::9          159                       # Per bank write bursts (Count)
system.mem_ctrls.dram.perBankRdBursts::10          146                       # Per bank write bursts (Count)
system.mem_ctrls.dram.perBankRdBursts::11          160                       # Per bank write bursts (Count)
system.mem_ctrls.dram.perBankRdBursts::12          101                       # Per bank write bursts (Count)
system.mem_ctrls.dram.perBankRdBursts::13           43                       # Per bank write bursts (Count)
system.mem_ctrls.dram.perBankRdBursts::14           27                       # Per bank write bursts (Count)
system.mem_ctrls.dram.perBankRdBursts::15           96                       # Per bank write bursts (Count)
system.mem_ctrls.dram.perBankWrBursts::0           10                       # Per bank write bursts (Count)
system.mem_ctrls.dram.perBankWrBursts::1          100                       # Per bank write bursts (Count)
system.mem_ctrls.dram.perBankWrBursts::2           89                       # Per bank write bursts (Count)
system.mem_ctrls.dram.perBankWrBursts::3           12                       # Per bank write bursts (Count)
system.mem_ctrls.dram.perBankWrBursts::4          238                       # Per bank write bursts (Count)
system.mem_ctrls.dram.perBankWrBursts::5          272                       # Per bank write bursts (Count)
system.mem_ctrls.dram.perBankWrBursts::6          256                       # Per bank write bursts (Count)
system.mem_ctrls.dram.perBankWrBursts::7          257                       # Per bank write bursts (Count)
system.mem_ctrls.dram.perBankWrBursts::8          137                       # Per bank write bursts (Count)
system.mem_ctrls.dram.perBankWrBursts::9          133                       # Per bank write bursts (Count)
system.mem_ctrls.dram.perBankWrBursts::10           98                       # Per bank write bursts (Count)
system.mem_ctrls.dram.perBankWrBursts::11           44                       # Per bank write bursts (Count)
system.mem_ctrls.dram.perBankWrBursts::12           10                       # Per bank write bursts (Count)
system.mem_ctrls.dram.perBankWrBursts::13            2                       # Per bank write bursts (Count)
system.mem_ctrls.dram.perBankWrBursts::14            9                       # Per bank write bursts (Count)
system.mem_ctrls.dram.perBankWrBursts::15           31                       # Per bank write bursts (Count)
system.mem_ctrls.dram.totQLat                40083500                       # Total ticks spent queuing (Tick)
system.mem_ctrls.dram.totBusLat              12360000                       # Total ticks spent in databus transfers (Tick)
system.mem_ctrls.dram.totMemAccLat           86433500                       # Total ticks spent from burst creation until serviced by the DRAM (Tick)
system.mem_ctrls.dram.avgQLat                16215.01                       # Average queueing delay per DRAM burst ((Tick/Count))
system.mem_ctrls.dram.avgBusLat               5000.00                       # Average bus latency per DRAM burst ((Tick/Count))
system.mem_ctrls.dram.avgMemAccLat           34965.01                       # Average memory access latency per DRAM burst ((Tick/Count))
system.mem_ctrls.dram.readRowHits                2091                       # Number of row buffer hits during reads (Count)
system.mem_ctrls.dram.writeRowHits               1526                       # Number of row buffer hits during writes (Count)
system.mem_ctrls.dram.readRowHitRate            84.59                       # Row buffer hit rate for reads (Ratio)
system.mem_ctrls.dram.writeRowHitRate           89.87                       # Row buffer hit rate for writes (Ratio)
system.mem_ctrls.dram.bytesPerActivate::samples          539                       # Bytes accessed per row activation (Byte)
system.mem_ctrls.dram.bytesPerActivate::mean   489.558442                       # Bytes accessed per row activation (Byte)
system.mem_ctrls.dram.bytesPerActivate::gmean   306.465404                       # Bytes accessed per row activation (Byte)
system.mem_ctrls.dram.bytesPerActivate::stdev   403.289750                       # Bytes accessed per row activation (Byte)
system.mem_ctrls.dram.bytesPerActivate::0-127           98     18.18%     18.18% # Bytes accessed per row activation (Byte)
system.mem_ctrls.dram.bytesPerActivate::128-255          139     25.79%     43.97% # Bytes accessed per row activation (Byte)
system.mem_ctrls.dram.bytesPerActivate::256-383           51      9.46%     53.43% # Bytes accessed per row activation (Byte)
system.mem_ctrls.dram.bytesPerActivate::384-511           32      5.94%     59.37% # Bytes accessed per row activation (Byte)
system.mem_ctrls.dram.bytesPerActivate::512-639           19      3.53%     62.89% # Bytes accessed per row activation (Byte)
system.mem_ctrls.dram.bytesPerActivate::640-767           12      2.23%     65.12% # Bytes accessed per row activation (Byte)
system.mem_ctrls.dram.bytesPerActivate::768-895            8      1.48%     66.60% # Bytes accessed per row activation (Byte)
system.mem_ctrls.dram.bytesPerActivate::896-1023            8      1.48%     68.09% # Bytes accessed per row activation (Byte)
system.mem_ctrls.dram.bytesPerActivate::1024-1151          172     31.91%    100.00% # Bytes accessed per row activation (Byte)
system.mem_ctrls.dram.bytesPerActivate::total          539                       # Bytes accessed per row activation (Byte)
system.mem_ctrls.dram.bytesRead                158208                       # Total bytes read (Byte)
system.mem_ctrls.dram.bytesWritten             108672                       # Total bytes written (Byte)
system.mem_ctrls.dram.avgRdBW              601.284982                       # Average DRAM read bandwidth in MiBytes/s ((Byte/Second))
system.mem_ctrls.dram.avgWrBW              413.018568                       # Average DRAM write bandwidth in MiBytes/s ((Byte/Second))
system.mem_ctrls.dram.peakBW                 12800.00                       # Theoretical peak bandwidth in MiByte/s ((Byte/Second))
system.mem_ctrls.dram.busUtil                    7.92                       # Data bus utilization in percentage (Ratio)
system.mem_ctrls.dram.busUtilRead                4.70                       # Data bus utilization in percentage for reads (Ratio)
system.mem_ctrls.dram.busUtilWrite               3.23                       # Data bus utilization in percentage for writes (Ratio)
system.mem_ctrls.dram.pageHitRate               86.74                       # Row buffer hit rate, read and write combined (Ratio)
system.mem_ctrls.dram.power_state.pwrStateResidencyTicks::UNDEFINED    263116500                       # Cumulative time (in ticks) in various power states (Tick)
system.mem_ctrls.dram.rank0.actEnergy         2777460                       # Energy for activate commands per rank (pJ) (Joule)
system.mem_ctrls.dram.rank0.preEnergy         1449690                       # Energy for precharge commands per rank (pJ) (Joule)
system.mem_ctrls.dram.rank0.readEnergy       11274060                       # Energy for read commands per rank (pJ) (Joule)
system.mem_ctrls.dram.rank0.writeEnergy       6415380                       # Energy for write commands per rank (pJ) (Joule)
system.mem_ctrls.dram.rank0.refreshEnergy 20283120.000000                       # Energy for refresh commands per rank (pJ) (Joule)
system.mem_ctrls.dram.rank0.actBackEnergy    106900650                       # Energy for active background per rank (pJ) (Joule)
system.mem_ctrls.dram.rank0.preBackEnergy     11015520                       # Energy for precharge background per rank (pJ) (Joule)
system.mem_ctrls.dram.rank0.actPowerDownEnergy            0                       # Energy for active power-down per rank (pJ) (Joule)
system.mem_ctrls.dram.rank0.prePowerDownEnergy            0                       # Energy for precharge power-down per rank (pJ) (Joule)
system.mem_ctrls.dram.rank0.selfRefreshEnergy            0                       # Energy for self refresh per rank (pJ) (Joule)
system.mem_ctrls.dram.rank0.totalEnergy     160115880                       # Total energy per rank (pJ) (Joule)
system.mem_ctrls.dram.rank0.averagePower   608.536067                       # Core power per rank (mW) (Watt)
system.mem_ctrls.dram.rank0.totalIdleTime            0                       # Total Idle time Per DRAM Rank (Tick)
system.mem_ctrls.dram.rank0.pwrStateTime::IDLE     27561750                       # Time in different power states (Tick)
system.mem_ctrls.dram.rank0.pwrStateTime::REF      8580000                       # Time in different power states (Tick)
system.mem_ctrls.dram.rank0.pwrStateTime::SREF            0                       # Time in different power states (Tick)
system.mem_ctrls.dram.rank0.pwrStateTime::PRE_PDN            0                       # Time in different power states (Tick)
system.mem_ctrls.dram.rank0.pwrStateTime::ACT    226974750                       # Time in different power states (Tick)
system.mem_ctrls.dram.rank0.pwrStateTime::ACT_PDN            0                       # Time in different power states (Tick)
system.mem_ctrls.dram.rank1.actEnergy         1163820                       # Energy for activate commands per rank (pJ) (Joule)
system.mem_ctrls.dram.rank1.preEnergy          588225                       # Energy for precharge commands per rank (pJ) (Joule)
system.mem_ctrls.dram.rank1.readEnergy        6376020                       # Energy for read commands per rank (pJ) (Joule)
system.mem_ctrls.dram.rank1.writeEnergy       2422080                       # Energy for write commands per rank (pJ) (Joule)
system.mem_ctrls.dram.rank1.refreshEnergy 20283120.000000                       # Energy for refresh commands per rank (pJ) (Joule)
system.mem_ctrls.dram.rank1.actBackEnergy     50218710                       # Energy for active background per rank (pJ) (Joule)
system.mem_ctrls.dram.rank1.preBackEnergy     58747680                       # Energy for precharge background per rank (pJ) (Joule)
system.mem_ctrls.dram.rank1.actPowerDownEnergy            0                       # Energy for active power-down per rank (pJ) (Joule)
system.mem_ctrls.dram.rank1.prePowerDownEnergy            0                       # Energy for precharge power-down per rank (pJ) (Joule)
system.mem_ctrls.dram.rank1.selfRefreshEnergy            0                       # Energy for self refresh per rank (pJ) (Joule)
system.mem_ctrls.dram.rank1.totalEnergy     139799655                       # Total energy per rank (pJ) (Joule)
system.mem_ctrls.dram.rank1.averagePower   531.322266                       # Core power per rank (mW) (Watt)
system.mem_ctrls.dram.rank1.totalIdleTime            0                       # Total Idle time Per DRAM Rank (Tick)
system.mem_ctrls.dram.rank1.pwrStateTime::IDLE    152144500                       # Time in different power states (Tick)
system.mem_ctrls.dram.rank1.pwrStateTime::REF      8580000                       # Time in different power states (Tick)
system.mem_ctrls.dram.rank1.pwrStateTime::SREF            0                       # Time in different power states (Tick)
system.mem_ctrls.dram.rank1.pwrStateTime::PRE_PDN            0                       # Time in different power states (Tick)
system.mem_ctrls.dram.rank1.pwrStateTime::ACT    102392000                       # Time in different power states (Tick)
system.mem_ctrls.dram.rank1.pwrStateTime::ACT_PDN            0                       # Time in different power states (Tick)
system.mem_ctrls.power_state.pwrStateResidencyTicks::UNDEFINED    263116500                       # Cumulative time (in ticks) in various power states (Tick)
system.membus.transDist::ReadResp                1890                       # Transaction distribution (Count)
system.membus.transDist::WritebackDirty          1512                       # Transaction distribution (Count)
system.membus.transDist::WritebackClean           209                       # Transaction distribution (Count)
system.membus.transDist::CleanEvict              1138                       # Transaction distribution (Count)
system.membus.transDist::ReadExReq                614                       # Transaction distribution (Count)
system.membus.transDist::ReadExResp               614                       # Transaction distribution (Count)
system.membus.transDist::ReadCleanReq             652                       # Transaction distribution (Count)
system.membus.transDist::ReadSharedReq           1239                       # Transaction distribution (Count)
system.membus.transDist::InvalidateReq           1053                       # Transaction distribution (Count)
system.membus.pktCount_system.cpu.icache.mem_side_port::system.mem_ctrls.port         1512                       # Packet count per connected requestor and responder (Count)
system.membus.pktCount_system.cpu.dcache.mem_side_port::system.mem_ctrls.port         7409                       # Packet count per connected requestor and responder (Count)
system.membus.pktCount::total                    8921                       # Packet count per connected requestor and responder (Count)
system.membus.pktSize_system.cpu.icache.mem_side_port::system.mem_ctrls.port        55040                       # Cumulative packet size per connected requestor and responder (Byte)
system.membus.pktSize_system.cpu.dcache.mem_side_port::system.mem_ctrls.port       215360                       # Cumulative packet size per connected requestor and responder (Byte)
system.membus.pktSize::total                   270400                       # Cumulative packet size per connected requestor and responder (Byte)
system.membus.snoops                                0                       # Total snoops (Count)
system.membus.snoopTraffic                          0                       # Total snoop traffic (Byte)
system.membus.snoopFanout::samples               3558                       # Request fanout histogram (Count)
system.membus.snoopFanout::mean              0.000843                       # Request fanout histogram (Count)
system.membus.snoopFanout::stdev             0.029029                       # Request fanout histogram (Count)
system.membus.snoopFanout::underflows               0      0.00%      0.00% # Request fanout histogram (Count)
system.membus.snoopFanout::0                     3555     99.92%     99.92% # Request fanout histogram (Count)
system.membus.snoopFanout::1                        3      0.08%    100.00% # Request fanout histogram (Count)
system.membus.snoopFanout::2                        0      0.00%    100.00% # Request fanout histogram (Count)
system.membus.snoopFanout::overflows                0      0.00%    100.00% # Request fanout histogram (Count)
system.membus.snoopFanout::min_value                0                       # Request fanout histogram (Count)
system.membus.snoopFanout::max_value                1                       # Request fanout histogram (Count)
system.membus.snoopFanout::total                 3558                       # Request fanout histogram (Count)
system.membus.power_state.pwrStateResidencyTicks::UNDEFINED    263116500                       # Cumulative time (in ticks) in various power states (Tick)
system.membus.reqLayer0.occupancy            13748500                       # Layer occupancy (ticks) (Tick)
system.membus.reqLayer0.utilization               0.1                       # Layer utilization (Ratio)
system.membus.respLayer1.occupancy            3462250                       # Layer occupancy (ticks) (Tick)
system.membus.respLayer1.utilization              0.0                       # Layer utilization (Ratio)
system.membus.respLayer2.occupancy            9778250                       # Layer occupancy (ticks) (Tick)
system.membus.respLayer2.utilization              0.0                       # Layer utilization (Ratio)
system.membus.snoop_filter.totRequests           6418                       # Total number of requests made to the snoop filter. (Count)
system.membus.snoop_filter.hitSingleRequests         2861                       # Number of requests hitting in the snoop filter with a single holder of the requested data. (Count)
system.membus.snoop_filter.hitMultiRequests            2                       # Number of requests hitting in the snoop filter with multiple (>1) holders of the requested data. (Count)
system.membus.snoop_filter.totSnoops                0                       # Total number of snoops made to the snoop filter. (Count)
system.membus.snoop_filter.hitSingleSnoops            0                       # Number of snoops hitting in the snoop filter with a single holder of the requested data. (Count)
system.membus.snoop_filter.hitMultiSnoops            0                       # Number of snoops hitting in the snoop filter with multiple (>1) holders of the requested data. (Count)
system.voltage_domain.voltage                       1                       # Voltage in Volts (Volt)
system.workload.inst.arm                            0                       # number of arm instructions executed (Count)
system.workload.inst.quiesce                        0                       # number of quiesce instructions executed (Count)

---------- End Simulation Statistics   ----------
