
---------- Begin Simulation Statistics ----------
simSeconds                                   0.000265                       # Number of seconds simulated (Second)
simTicks                                    265435000                       # Number of ticks simulated (Tick)
finalTick                                   265435000                       # Number of ticks from beginning of simulation (restored from checkpoints and never reset) (Tick)
simFreq                                  1000000000000                       # The number of ticks per simulated second ((Tick/Second))
hostSeconds                                      1.06                       # Real time elapsed on the host (Second)
hostTickRate                                249510502                       # The number of ticks simulated per host second (ticks/s) ((Tick/Second))
hostMemory                                     671436                       # Number of bytes of host memory used (Byte)
simInsts                                       808582                       # Number of instructions simulated (Count)
simOps                                         817727                       # Number of ops (including micro ops) simulated (Count)
hostInstRate                                   760040                       # Simulator instruction rate (inst/s) ((Count/Second))
hostOpRate                                     768633                       # Simulator op (including micro ops) rate (op/s) ((Count/Second))
system.clk_domain.clock                          1000                       # Clock period in ticks (Tick)
system.cpu.numCycles                           530871                       # Number of cpu cycles simulated (Cycle)
system.cpu.numWorkItemsStarted                      0                       # Number of work items this cpu started (Count)
system.cpu.numWorkItemsCompleted                    0                       # Number of work items this cpu completed (Count)
system.cpu.instsAdded                          845429                       # Number of instructions added to the IQ (excludes non-spec) (Count)
system.cpu.nonSpecInstsAdded                       98                       # Number of non-speculative instructions added to the IQ (Count)
system.cpu.instsIssued                         838504                       # Number of instructions issued (Count)
system.cpu.squashedInstsIssued                    192                       # Number of squashed instructions issued (Count)
system.cpu.squashedInstsExamined                27799                       # Number of squashed instructions iterated over during squash; mainly for profiling (Count)
system.cpu.squashedOperandsExamined             21350                       # Number of squashed operands that are examined and possibly removed from graph (Count)
system.cpu.squashedNonSpecRemoved                  38                       # Number of squashed non-spec instructions that were removed (Count)
system.cpu.numIssuedDist::samples              488469                       # Number of insts issued each cycle (Count)
system.cpu.numIssuedDist::mean               1.716596                       # Number of insts issued each cycle (Count)
system.cpu.numIssuedDist::stdev              1.412086                       # Number of insts issued each cycle (Count)
system.cpu.numIssuedDist::underflows                0      0.00%      0.00% # Number of insts issued each cycle (Count)
system.cpu.numIssuedDist::0                    143294     29.34%     29.34% # Number of insts issued each cycle (Count)
system.cpu.numIssuedDist::1                     48277      9.88%     39.22% # Number of insts issued each cycle (Count)
system.cpu.numIssuedDist::2                    184745     37.82%     77.04% # Number of insts issued each cycle (Count)
system.cpu.numIssuedDist::3                     37560      7.69%     84.73% # Number of insts issued each cycle (Count)
system.cpu.numIssuedDist::4                     67853     13.89%     98.62% # Number of insts issued each cycle (Count)
system.cpu.numIssuedDist::5                      4393      0.90%     99.52% # Number of insts issued each cycle (Count)
system.cpu.numIssuedDist::6                      1917      0.39%     99.91% # Number of insts issued each cycle (Count)
system.cpu.numIssuedDist::7                       262      0.05%     99.97% # Number of insts issued each cycle (Count)
system.cpu.numIssuedDist::8                       168      0.03%    100.00% # Number of insts issued each cycle (Count)
system.cpu.numIssuedDist::overflows                 0      0.00%    100.00% # Number of insts issued each cycle (Count)
system.cpu.numIssuedDist::min_value                 0                       # Number of insts issued each cycle (Count)
system.cpu.numIssuedDist::max_value                 8                       # Number of insts issued each cycle (Count)
system.cpu.numIssuedDist::total                488469                       # Number of insts issued each cycle (Count)
system.cpu.statFuBusy::No_OpClass                   0      0.00%      0.00% # attempts to use FU when none available (Count)
system.cpu.statFuBusy::IntAlu                      93      0.30%      0.30% # attempts to use FU when none available (Count)
system.cpu.statFuBusy::IntMult                      0      0.00%      0.30% # attempts to use FU when none available (Count)
system.cpu.statFuBusy::IntDiv                       0      0.00%      0.30% # attempts to use FU when none available (Count)
system.cpu.statFuBusy::FloatAdd                     0      0.00%      0.30% # attempts to use FU when none available (Count)
system.cpu.statFuBusy::FloatCmp                     0      0.00%      0.30% # attempts to use FU when none available (Count)
system.cpu.statFuBusy::FloatCvt                     0      0.00%      0.30% # attempts to use FU when none available (Count)
system.cpu.statFuBusy::FloatMult                    0      0.00%      0.30% # attempts to use FU when none available (Count)
system.cpu.statFuBusy::FloatMultAcc                 0      0.00%      0.30% # attempts to use FU when none available (Count)
system.cpu.statFuBusy::FloatDiv                     0      0.00%      0.30% # attempts to use FU when none available (Count)
system.cpu.statFuBusy::FloatMisc                    0      0.00%      0.30% # attempts to use FU when none available (Count)
system.cpu.statFuBusy::FloatSqrt                    0      0.00%      0.30% # attempts to use FU when none available (Count)
system.cpu.statFuBusy::SimdAdd                      0      0.00%      0.30% # attempts to use FU when none available (Count)
system.cpu.statFuBusy::SimdAddAcc                   0      0.00%      0.30% # attempts to use FU when none available (Count)
system.cpu.statFuBusy::SimdAlu                      0      0.00%      0.30% # attempts to use FU when none available (Count)
system.cpu.statFuBusy::SimdCmp                      1      0.00%      0.30% # attempts to use FU when none available (Count)
system.cpu.statFuBusy::SimdCvt                      0      0.00%      0.30% # attempts to use FU when none available (Count)
system.cpu.statFuBusy::SimdMisc                     0      0.00%      0.30% # attempts to use FU when none available (Count)
system.cpu.statFuBusy::SimdMult                     0      0.00%      0.30% # attempts to use FU when none available (Count)
system.cpu.statFuBusy::SimdMultAcc                  0      0.00%      0.30% # attempts to use FU when none available (Count)
system.cpu.statFuBusy::SimdShift                    0      0.00%      0.30% # attempts to use FU when none available (Count)
system.cpu.statFuBusy::SimdShiftAcc                 0      0.00%      0.30% # attempts to use FU when none available (Count)
system.cpu.statFuBusy::SimdDiv                      0      0.00%      0.30% # attempts to use FU when none available (Count)
system.cpu.statFuBusy::SimdSqrt                     0      0.00%      0.30% # attempts to use FU when none available (Count)
system.cpu.statFuBusy::SimdFloatAdd                 0      0.00%      0.30% # attempts to use FU when none available (Count)
system.cpu.statFuBusy::SimdFloatAlu                 0      0.00%      0.30% # attempts to use FU when none available (Count)
system.cpu.statFuBusy::SimdFloatCmp                 0      0.00%      0.30% # attempts to use FU when none available (Count)
system.cpu.statFuBusy::SimdFloatCvt                 0      0.00%      0.30% # attempts to use FU when none available (Count)
system.cpu.statFuBusy::SimdFloatDiv                 0      0.00%      0.30% # attempts to use FU when none available (Count)
system.cpu.statFuBusy::SimdFloatMisc                0      0.00%      0.30% # attempts to use FU when none available (Count)
system.cpu.statFuBusy::SimdFloatMult                0      0.00%      0.30% # attempts to use FU when none available (Count)
system.cpu.statFuBusy::SimdFloatMultAcc             0      0.00%      0.30% # attempts to use FU when none available (Count)
system.cpu.statFuBusy::SimdFloatSqrt                0      0.00%      0.30% # attempts to use FU when none available (Count)
system.cpu.statFuBusy::SimdReduceAdd                0      0.00%      0.30% # attempts to use FU when none available (Count)
system.cpu.statFuBusy::SimdReduceAlu                0      0.00%      0.30% # attempts to use FU when none available (Count)
system.cpu.statFuBusy::SimdReduceCmp                0      0.00%      0.30% # attempts to use FU when none available (Count)
system.cpu.statFuBusy::SimdFloatReduceAdd            0      0.00%      0.30% # attempts to use FU when none available (Count)
system.cpu.statFuBusy::SimdFloatReduceCmp            0      0.00%      0.30% # attempts to use FU when none available (Count)
system.cpu.statFuBusy::SimdAes                      0      0.00%      0.30% # attempts to use FU when none available (Count)
system.cpu.statFuBusy::SimdAesMix                   0      0.00%      0.30% # attempts to use FU when none available (Count)
system.cpu.statFuBusy::SimdSha1Hash                 0      0.00%      0.30% # attempts to use FU when none available (Count)
system.cpu.statFuBusy::SimdSha1Hash2                0      0.00%      0.30% # attempts to use FU when none available (Count)
system.cpu.statFuBusy::SimdSha256Hash               0      0.00%      0.30% # attempts to use FU when none available (Count)
system.cpu.statFuBusy::SimdSha256Hash2              0      0.00%      0.30% # attempts to use FU when none available (Count)
system.cpu.statFuBusy::SimdShaSigma2                0      0.00%      0.30% # attempts to use FU when none available (Count)
system.cpu.statFuBusy::SimdShaSigma3                0      0.00%      0.30% # attempts to use FU when none available (Count)
system.cpu.statFuBusy::SimdPredAlu                  0      0.00%      0.30% # attempts to use FU when none available (Count)
system.cpu.statFuBusy::MemRead                  30738     99.14%     99.44% # attempts to use FU when none available (Count)
system.cpu.statFuBusy::MemWrite                   174      0.56%    100.00% # attempts to use FU when none available (Count)
system.cpu.statFuBusy::FloatMemRead                 0      0.00%    100.00% # attempts to use FU when none available (Count)
system.cpu.statFuBusy::FloatMemWrite                0      0.00%    100.00% # attempts to use FU when none available (Count)
system.cpu.statFuBusy::IprAccess                    0      0.00%    100.00% # attempts to use FU when none available (Count)
system.cpu.statFuBusy::InstPrefetch                 0      0.00%    100.00% # attempts to use FU when none available (Count)
system.cpu.statIssuedInstType_0::No_OpClass           29      0.00%      0.00% # Number of instructions issued per FU type, per thread (Count)
system.cpu.statIssuedInstType_0::IntAlu        453735     54.11%     54.12% # Number of instructions issued per FU type, per thread (Count)
system.cpu.statIssuedInstType_0::IntMult           10      0.00%     54.12% # Number of instructions issued per FU type, per thread (Count)
system.cpu.statIssuedInstType_0::IntDiv             3      0.00%     54.12% # Number of instructions issued per FU type, per thread (Count)
system.cpu.statIssuedInstType_0::FloatAdd            0      0.00%     54.12% # Number of instructions issued per FU type, per thread (Count)
system.cpu.statIssuedInstType_0::FloatCmp            0      0.00%     54.12% # Number of instructions issued per FU type, per thread (Count)
system.cpu.statIssuedInstType_0::FloatCvt            0      0.00%     54.12% # Number of instructions issued per FU type, per thread (Count)
system.cpu.statIssuedInstType_0::FloatMult            0      0.00%     54.12% # Number of instructions issued per FU type, per thread (Count)
system.cpu.statIssuedInstType_0::FloatMultAcc            0      0.00%     54.12% # Number of instructions issued per FU type, per thread (Count)
system.cpu.statIssuedInstType_0::FloatDiv            0      0.00%     54.12% # Number of instructions issued per FU type, per thread (Count)
system.cpu.statIssuedInstType_0::FloatMisc            0      0.00%     54.12% # Number of instructions issued per FU type, per thread (Count)
system.cpu.statIssuedInstType_0::FloatSqrt            0      0.00%     54.12% # Number of instructions issued per FU type, per thread (Count)
system.cpu.statIssuedInstType_0::SimdAdd           30      0.00%     54.12% # Number of instructions issued per FU type, per thread (Count)
system.cpu.statIssuedInstType_0::SimdAddAcc            0      0.00%     54.12% # Number of instructions issued per FU type, per thread (Count)
system.cpu.statIssuedInstType_0::SimdAlu           45      0.01%     54.13% # Number of instructions issued per FU type, per thread (Count)
system.cpu.statIssuedInstType_0::SimdCmp           44      0.01%     54.13% # Number of instructions issued per FU type, per thread (Count)
system.cpu.statIssuedInstType_0::SimdCvt            0      0.00%     54.13% # Number of instructions issued per FU type, per thread (Count)
system.cpu.statIssuedInstType_0::SimdMisc           39      0.00%     54.14% # Number of instructions issued per FU type, per thread (Count)
system.cpu.statIssuedInstType_0::SimdMult            0      0.00%     54.14% # Number of instructions issued per FU type, per thread (Count)
system.cpu.statIssuedInstType_0::SimdMultAcc            0      0.00%     54.14% # Number of instructions issued per FU type, per thread (Count)
system.cpu.statIssuedInstType_0::SimdShift            0      0.00%     54.14% # Number of instructions issued per FU type, per thread (Count)
system.cpu.statIssuedInstType_0::SimdShiftAcc            0      0.00%     54.14% # Number of instructions issued per FU type, per thread (Count)
system.cpu.statIssuedInstType_0::SimdDiv            0      0.00%     54.14% # Number of instructions issued per FU type, per thread (Count)
system.cpu.statIssuedInstType_0::SimdSqrt            0      0.00%     54.14% # Number of instructions issued per FU type, per thread (Count)
system.cpu.statIssuedInstType_0::SimdFloatAdd            0      0.00%     54.14% # Number of instructions issued per FU type, per thread (Count)
system.cpu.statIssuedInstType_0::SimdFloatAlu            0      0.00%     54.14% # Number of instructions issued per FU type, per thread (Count)
system.cpu.statIssuedInstType_0::SimdFloatCmp            0      0.00%     54.14% # Number of instructions issued per FU type, per thread (Count)
system.cpu.statIssuedInstType_0::SimdFloatCvt            0      0.00%     54.14% # Number of instructions issued per FU type, per thread (Count)
system.cpu.statIssuedInstType_0::SimdFloatDiv            0      0.00%     54.14% # Number of instructions issued per FU type, per thread (Count)
system.cpu.statIssuedInstType_0::SimdFloatMisc            0      0.00%     54.14% # Number of instructions issued per FU type, per thread (Count)
system.cpu.statIssuedInstType_0::SimdFloatMult            0      0.00%     54.14% # Number of instructions issued per FU type, per thread (Count)
system.cpu.statIssuedInstType_0::SimdFloatMultAcc            0      0.00%     54.14% # Number of instructions issued per FU type, per thread (Count)
system.cpu.statIssuedInstType_0::SimdFloatSqrt            0      0.00%     54.14% # Number of instructions issued per FU type, per thread (Count)
system.cpu.statIssuedInstType_0::SimdReduceAdd            0      0.00%     54.14% # Number of instructions issued per FU type, per thread (Count)
system.cpu.statIssuedInstType_0::SimdReduceAlu            0      0.00%     54.14% # Number of instructions issued per FU type, per thread (Count)
system.cpu.statIssuedInstType_0::SimdReduceCmp            0      0.00%     54.14% # Number of instructions issued per FU type, per thread (Count)
system.cpu.statIssuedInstType_0::SimdFloatReduceAdd            0      0.00%     54.14% # Number of instructions issued per FU type, per thread (Count)
system.cpu.statIssuedInstType_0::SimdFloatReduceCmp            0      0.00%     54.14% # Number of instructions issued per FU type, per thread (Count)
system.cpu.statIssuedInstType_0::SimdAes            0      0.00%     54.14% # Number of instructions issued per FU type, per thread (Count)
system.cpu.statIssuedInstType_0::SimdAesMix            0      0.00%     54.14% # Number of instructions issued per FU type, per thread (Count)
system.cpu.statIssuedInstType_0::SimdSha1Hash            0      0.00%     54.14% # Number of instructions issued per FU type, per thread (Count)
system.cpu.statIssuedInstType_0::SimdSha1Hash2            0      0.00%     54.14% # Number of instructions issued per FU type, per thread (Count)
system.cpu.statIssuedInstType_0::SimdSha256Hash            0      0.00%     54.14% # Number of instructions issued per FU type, per thread (Count)
system.cpu.statIssuedInstType_0::SimdSha256Hash2            0      0.00%     54.14% # Number of instructions issued per FU type, per thread (Count)
system.cpu.statIssuedInstType_0::SimdShaSigma2            0      0.00%     54.14% # Number of instructions issued per FU type, per thread (Count)
system.cpu.statIssuedInstType_0::SimdShaSigma3            0      0.00%     54.14% # Number of instructions issued per FU type, per thread (Count)
system.cpu.statIssuedInstType_0::SimdPredAlu            0      0.00%     54.14% # Number of instructions issued per FU type, per thread (Count)
system.cpu.statIssuedInstType_0::MemRead       341986     40.79%     94.92% # Number of instructions issued per FU type, per thread (Count)
system.cpu.statIssuedInstType_0::MemWrite        42583      5.08%    100.00% # Number of instructions issued per FU type, per thread (Count)
system.cpu.statIssuedInstType_0::FloatMemRead            0      0.00%    100.00% # Number of instructions issued per FU type, per thread (Count)
system.cpu.statIssuedInstType_0::FloatMemWrite            0      0.00%    100.00% # Number of instructions issued per FU type, per thread (Count)
system.cpu.statIssuedInstType_0::IprAccess            0      0.00%    100.00% # Number of instructions issued per FU type, per thread (Count)
system.cpu.statIssuedInstType_0::InstPrefetch            0      0.00%    100.00% # Number of instructions issued per FU type, per thread (Count)
system.cpu.statIssuedInstType_0::total         838504                       # Number of instructions issued per FU type, per thread (Count)
system.cpu.issueRate                         1.579487                       # Inst issue rate ((Count/Cycle))
system.cpu.fuBusy                               31006                       # FU busy when requested (Count)
system.cpu.fuBusyRate                        0.036978                       # FU busy rate (busy events/executed inst) ((Count/Count))
system.cpu.intInstQueueReads                  2195717                       # Number of integer instruction queue reads (Count)
system.cpu.intInstQueueWrites                  872638                       # Number of integer instruction queue writes (Count)
system.cpu.intInstQueueWakeupAccesses          831566                       # Number of integer instruction queue wakeup accesses (Count)
system.cpu.fpInstQueueReads                         0                       # Number of floating instruction queue reads (Count)
system.cpu.fpInstQueueWrites                        0                       # Number of floating instruction queue writes (Count)
system.cpu.fpInstQueueWakeupAccesses                0                       # Number of floating instruction queue wakeup accesses (Count)
system.cpu.vecInstQueueReads                      958                       # Number of vector instruction queue reads (Count)
system.cpu.vecInstQueueWrites                     763                       # Number of vector instruction queue writes (Count)
system.cpu.vecInstQueueWakeupAccesses             384                       # Number of vector instruction queue wakeup accesses (Count)
system.cpu.intAluAccesses                      869022                       # Number of integer alu accesses (Count)
system.cpu.fpAluAccesses                            0                       # Number of floating point alu accesses (Count)
system.cpu.vecAluAccesses                         459                       # Number of vector alu accesses (Count)
system.cpu.numInsts                            836771                       # Number of executed instructions (Count)
system.cpu.numLoadInsts                        341045                       # Number of load instructions executed (Count)
system.cpu.numSquashedInsts                      1733                       # Number of squashed instructions skipped in execute (Count)
system.cpu.numSwp                                   0                       # Number of swp insts executed (Count)
system.cpu.numNop                               33161                       # Number of nop insts executed (Count)
system.cpu.numRefs                             383390                       # Number of memory reference insts executed (Count)
system.cpu.numBranches                         169422                       # Number of branches executed (Count)
system.cpu.numStoreInsts                        42345                       # Number of stores executed (Count)
system.cpu.numRate                           1.576223                       # Inst execution rate ((Count/Cycle))
system.cpu.timesIdled                             488                       # Number of times that the entire CPU went into an idle state and unscheduled itself (Count)
system.cpu.idleCycles                           42402                       # Total number of cycles that the CPU has spent unscheduled due to idling (Cycle)
system.cpu.committedInsts                      808582                       # Number of Instructions Simulated (Count)
system.cpu.committedOps                        817727                       # Number of Ops (including micro ops) Simulated (Count)
system.cpu.cpi                               0.656546                       # CPI: Cycles Per Instruction ((Cycle/Count))
system.cpu.totalCpi                          0.656546                       # CPI: Total CPI of All Threads ((Cycle/Count))
system.cpu.ipc                               1.523123                       # IPC: Instructions Per Cycle ((Count/Cycle))
system.cpu.totalIpc                          1.523123                       # IPC: Total IPC of All Threads ((Count/Cycle))
system.cpu.intRegfileReads                     809330                       # Number of integer regfile reads (Count)
system.cpu.intRegfileWrites                    623986                       # Number of integer regfile writes (Count)
system.cpu.vecRegfileReads                        459                       # number of vector regfile reads (Count)
system.cpu.vecRegfileWrites                       185                       # number of vector regfile writes (Count)
system.cpu.ccRegfileReads                      403974                       # number of cc regfile reads (Count)
system.cpu.ccRegfileWrites                     404064                       # number of cc regfile writes (Count)
system.cpu.miscRegfileReads                   2249123                       # number of misc regfile reads (Count)
system.cpu.miscRegfileWrites                       45                       # number of misc regfile writes (Count)
system.cpu.MemDepUnit__0.insertedLoads         342182                       # Number of loads inserted to the mem dependence unit. (Count)
system.cpu.MemDepUnit__0.insertedStores         43286                       # Number of stores inserted to the mem dependence unit. (Count)
system.cpu.MemDepUnit__0.conflictingLoads        73846                       # Number of conflicting loads. (Count)
system.cpu.MemDepUnit__0.conflictingStores         1775                       # Number of conflicting stores. (Count)
system.cpu.MemDepUnit__1.insertedLoads              0                       # Number of loads inserted to the mem dependence unit. (Count)
system.cpu.MemDepUnit__1.insertedStores             0                       # Number of stores inserted to the mem dependence unit. (Count)
system.cpu.MemDepUnit__1.conflictingLoads            0                       # Number of conflicting loads. (Count)
system.cpu.MemDepUnit__1.conflictingStores            0                       # Number of conflicting stores. (Count)
system.cpu.MemDepUnit__2.insertedLoads              0                       # Number of loads inserted to the mem dependence unit. (Count)
system.cpu.MemDepUnit__2.insertedStores             0                       # Number of stores inserted to the mem dependence unit. (Count)
system.cpu.MemDepUnit__2.conflictingLoads            0                       # Number of conflicting loads. (Count)
system.cpu.MemDepUnit__2.conflictingStores            0                       # Number of conflicting stores. (Count)
system.cpu.MemDepUnit__3.insertedLoads              0                       # Number of loads inserted to the mem dependence unit. (Count)
system.cpu.MemDepUnit__3.insertedStores             0                       # Number of stores inserted to the mem dependence unit. (Count)
system.cpu.MemDepUnit__3.conflictingLoads            0                       # Number of conflicting loads. (Count)
system.cpu.MemDepUnit__3.conflictingStores            0                       # Number of conflicting stores. (Count)
system.cpu.branchPred.lookups                  175851                       # Number of BP lookups (Count)
system.cpu.branchPred.condPredicted            140820                       # Number of conditional branches predicted (Count)
system.cpu.branchPred.condIncorrect              1564                       # Number of conditional branches incorrect (Count)
system.cpu.branchPred.BTBLookups               171405                       # Number of BTB lookups (Count)
system.cpu.branchPred.BTBHits                  170050                       # Number of BTB hits (Count)
system.cpu.branchPred.BTBHitRatio            0.992095                       # BTB Hit Ratio (Ratio)
system.cpu.branchPred.RASUsed                     568                       # Number of times the RAS was used to get a target. (Count)
system.cpu.branchPred.RASIncorrect                  1                       # Number of incorrect RAS predictions. (Count)
system.cpu.branchPred.indirectLookups             177                       # Number of indirect predictor lookups. (Count)
system.cpu.branchPred.indirectHits                  4                       # Number of indirect target hits. (Count)
system.cpu.branchPred.indirectMisses              173                       # Number of indirect misses. (Count)
system.cpu.branchPred.indirectMispredicted           60                       # Number of mispredicted indirect branches. (Count)
system.cpu.commit.commitSquashedInsts           28444                       # The number of squashed insts skipped by commit (Count)
system.cpu.commit.commitNonSpecStalls              60                       # The number of times commit has been forced to stall to communicate backwards (Count)
system.cpu.commit.branchMispredicts              1238                       # The number of times a branch was mispredicted (Count)
system.cpu.commit.numCommittedDist::samples       484093                       # Number of insts commited each cycle (Count)
system.cpu.commit.numCommittedDist::mean     1.756249                       # Number of insts commited each cycle (Count)
system.cpu.commit.numCommittedDist::stdev     2.310066                       # Number of insts commited each cycle (Count)
system.cpu.commit.numCommittedDist::underflows            0      0.00%      0.00% # Number of insts commited each cycle (Count)
system.cpu.commit.numCommittedDist::0          221413     45.74%     45.74% # Number of insts commited each cycle (Count)
system.cpu.commit.numCommittedDist::1           98906     20.43%     66.17% # Number of insts commited each cycle (Count)
system.cpu.commit.numCommittedDist::2           31286      6.46%     72.63% # Number of insts commited each cycle (Count)
system.cpu.commit.numCommittedDist::3            2148      0.44%     73.08% # Number of insts commited each cycle (Count)
system.cpu.commit.numCommittedDist::4           59458     12.28%     85.36% # Number of insts commited each cycle (Count)
system.cpu.commit.numCommittedDist::5           30540      6.31%     91.67% # Number of insts commited each cycle (Count)
system.cpu.commit.numCommittedDist::6             693      0.14%     91.81% # Number of insts commited each cycle (Count)
system.cpu.commit.numCommittedDist::7           29616      6.12%     97.93% # Number of insts commited each cycle (Count)
system.cpu.commit.numCommittedDist::8           10033      2.07%    100.00% # Number of insts commited each cycle (Count)
system.cpu.commit.numCommittedDist::overflows            0      0.00%    100.00% # Number of insts commited each cycle (Count)
system.cpu.commit.numCommittedDist::min_value            0                       # Number of insts commited each cycle (Count)
system.cpu.commit.numCommittedDist::max_value            8                       # Number of insts commited each cycle (Count)
system.cpu.commit.numCommittedDist::total       484093                       # Number of insts commited each cycle (Count)
system.cpu.commit.instsCommitted               841043                       # Number of instructions committed (Count)
system.cpu.commit.opsCommitted                 850188                       # Number of ops (including micro ops) committed (Count)
system.cpu.commit.memRefs                      374117                       # Number of memory references committed (Count)
system.cpu.commit.loads                        333461                       # Number of loads committed (Count)
system.cpu.commit.amos                             14                       # Number of atomic instructions committed (Count)
system.cpu.commit.membars                          18                       # Number of memory barriers committed (Count)
system.cpu.commit.branches                     166795                       # Number of branches committed (Count)
system.cpu.commit.vectorInstructions              275                       # Number of committed Vector instructions. (Count)
system.cpu.commit.floating                          0                       # Number of committed floating point instructions. (Count)
system.cpu.commit.integer                      651930                       # Number of committed integer instructions. (Count)
system.cpu.commit.functionCalls                   226                       # Number of function calls committed. (Count)
system.cpu.commit.committedInstType_0::No_OpClass           26      0.00%      0.00% # Class of committed instruction (Count)
system.cpu.commit.committedInstType_0::IntAlu       475919     55.98%     55.98% # Class of committed instruction (Count)
system.cpu.commit.committedInstType_0::IntMult            8      0.00%     55.98% # Class of committed instruction (Count)
system.cpu.commit.committedInstType_0::IntDiv            3      0.00%     55.98% # Class of committed instruction (Count)
system.cpu.commit.committedInstType_0::FloatAdd            0      0.00%     55.98% # Class of committed instruction (Count)
system.cpu.commit.committedInstType_0::FloatCmp            0      0.00%     55.98% # Class of committed instruction (Count)
system.cpu.commit.committedInstType_0::FloatCvt            0      0.00%     55.98% # Class of committed instruction (Count)
system.cpu.commit.committedInstType_0::FloatMult            0      0.00%     55.98% # Class of committed instruction (Count)
system.cpu.commit.committedInstType_0::FloatMultAcc            0      0.00%     55.98% # Class of committed instruction (Count)
system.cpu.commit.committedInstType_0::FloatDiv            0      0.00%     55.98% # Class of committed instruction (Count)
system.cpu.commit.committedInstType_0::FloatMisc            0      0.00%     55.98% # Class of committed instruction (Count)
system.cpu.commit.committedInstType_0::FloatSqrt            0      0.00%     55.98% # Class of committed instruction (Count)
system.cpu.commit.committedInstType_0::SimdAdd           23      0.00%     55.99% # Class of committed instruction (Count)
system.cpu.commit.committedInstType_0::SimdAddAcc            0      0.00%     55.99% # Class of committed instruction (Count)
system.cpu.commit.committedInstType_0::SimdAlu           32      0.00%     55.99% # Class of committed instruction (Count)
system.cpu.commit.committedInstType_0::SimdCmp           32      0.00%     55.99% # Class of committed instruction (Count)
system.cpu.commit.committedInstType_0::SimdCvt            0      0.00%     55.99% # Class of committed instruction (Count)
system.cpu.commit.committedInstType_0::SimdMisc           28      0.00%     56.00% # Class of committed instruction (Count)
system.cpu.commit.committedInstType_0::SimdMult            0      0.00%     56.00% # Class of committed instruction (Count)
system.cpu.commit.committedInstType_0::SimdMultAcc            0      0.00%     56.00% # Class of committed instruction (Count)
system.cpu.commit.committedInstType_0::SimdShift            0      0.00%     56.00% # Class of committed instruction (Count)
system.cpu.commit.committedInstType_0::SimdShiftAcc            0      0.00%     56.00% # Class of committed instruction (Count)
system.cpu.commit.committedInstType_0::SimdDiv            0      0.00%     56.00% # Class of committed instruction (Count)
system.cpu.commit.committedInstType_0::SimdSqrt            0      0.00%     56.00% # Class of committed instruction (Count)
system.cpu.commit.committedInstType_0::SimdFloatAdd            0      0.00%     56.00% # Class of committed instruction (Count)
system.cpu.commit.committedInstType_0::SimdFloatAlu            0      0.00%     56.00% # Class of committed instruction (Count)
system.cpu.commit.committedInstType_0::SimdFloatCmp            0      0.00%     56.00% # Class of committed instruction (Count)
system.cpu.commit.committedInstType_0::SimdFloatCvt            0      0.00%     56.00% # Class of committed instruction (Count)
system.cpu.commit.committedInstType_0::SimdFloatDiv            0      0.00%     56.00% # Class of committed instruction (Count)
system.cpu.commit.committedInstType_0::SimdFloatMisc            0      0.00%     56.00% # Class of committed instruction (Count)
system.cpu.commit.committedInstType_0::SimdFloatMult            0      0.00%     56.00% # Class of committed instruction (Count)
system.cpu.commit.committedInstType_0::SimdFloatMultAcc            0      0.00%     56.00% # Class of committed instruction (Count)
system.cpu.commit.committedInstType_0::SimdFloatSqrt            0      0.00%     56.00% # Class of committed instruction (Count)
system.cpu.commit.committedInstType_0::SimdReduceAdd            0      0.00%     56.00% # Class of committed instruction (Count)
system.cpu.commit.committedInstType_0::SimdReduceAlu            0      0.00%     56.00% # Class of committed instruction (Count)
system.cpu.commit.committedInstType_0::SimdReduceCmp            0      0.00%     56.00% # Class of committed instruction (Count)
system.cpu.commit.committedInstType_0::SimdFloatReduceAdd            0      0.00%     56.00% # Class of committed instruction (Count)
system.cpu.commit.committedInstType_0::SimdFloatReduceCmp            0      0.00%     56.00% # Class of committed instruction (Count)
system.cpu.commit.committedInstType_0::SimdAes            0      0.00%     56.00% # Class of committed instruction (Count)
system.cpu.commit.committedInstType_0::SimdAesMix            0      0.00%     56.00% # Class of committed instruction (Count)
system.cpu.commit.committedInstType_0::SimdSha1Hash            0      0.00%     56.00% # Class of committed instruction (Count)
system.cpu.commit.committedInstType_0::SimdSha1Hash2            0      0.00%     56.00% # Class of committed instruction (Count)
system.cpu.commit.committedInstType_0::SimdSha256Hash            0      0.00%     56.00% # Class of committed instruction (Count)
system.cpu.commit.committedInstType_0::SimdSha256Hash2            0      0.00%     56.00% # Class of committed instruction (Count)
system.cpu.commit.committedInstType_0::SimdShaSigma2            0      0.00%     56.00% # Class of committed instruction (Count)
system.cpu.commit.committedInstType_0::SimdShaSigma3            0      0.00%     56.00% # Class of committed instruction (Count)
system.cpu.commit.committedInstType_0::SimdPredAlu            0      0.00%     56.00% # Class of committed instruction (Count)
system.cpu.commit.committedInstType_0::MemRead       333461     39.22%     95.22% # Class of committed instruction (Count)
system.cpu.commit.committedInstType_0::MemWrite        40656      4.78%    100.00% # Class of committed instruction (Count)
system.cpu.commit.committedInstType_0::FloatMemRead            0      0.00%    100.00% # Class of committed instruction (Count)
system.cpu.commit.committedInstType_0::FloatMemWrite            0      0.00%    100.00% # Class of committed instruction (Count)
system.cpu.commit.committedInstType_0::IprAccess            0      0.00%    100.00% # Class of committed instruction (Count)
system.cpu.commit.committedInstType_0::InstPrefetch            0      0.00%    100.00% # Class of committed instruction (Count)
system.cpu.commit.committedInstType_0::total       850188                       # Class of committed instruction (Count)
system.cpu.commit.commitEligibleSamples         10033                       # number cycles where commit BW limit reached (Cycle)
system.cpu.dcache.demandHits::cpu.data         298375                       # number of demand (read+write) hits (Count)
system.cpu.dcache.demandHits::total            298375                       # number of demand (read+write) hits (Count)
system.cpu.dcache.overallHits::cpu.data        298380                       # number of overall hits (Count)
system.cpu.dcache.overallHits::total           298380                       # number of overall hits (Count)
system.cpu.dcache.demandMisses::cpu.data        10546                       # number of demand (read+write) misses (Count)
system.cpu.dcache.demandMisses::total           10546                       # number of demand (read+write) misses (Count)
system.cpu.dcache.overallMisses::cpu.data        10549                       # number of overall misses (Count)
system.cpu.dcache.overallMisses::total          10549                       # number of overall misses (Count)
system.cpu.dcache.demandMissLatency::cpu.data    546950970                       # number of demand (read+write) miss ticks (Tick)
system.cpu.dcache.demandMissLatency::total    546950970                       # number of demand (read+write) miss ticks (Tick)
system.cpu.dcache.overallMissLatency::cpu.data    546950970                       # number of overall miss ticks (Tick)
system.cpu.dcache.overallMissLatency::total    546950970                       # number of overall miss ticks (Tick)
system.cpu.dcache.demandAccesses::cpu.data       308921                       # number of demand (read+write) accesses (Count)
system.cpu.dcache.demandAccesses::total        308921                       # number of demand (read+write) accesses (Count)
system.cpu.dcache.overallAccesses::cpu.data       308929                       # number of overall (read+write) accesses (Count)
system.cpu.dcache.overallAccesses::total       308929                       # number of overall (read+write) accesses (Count)
system.cpu.dcache.demandMissRate::cpu.data     0.034138                       # miss rate for demand accesses (Ratio)
system.cpu.dcache.demandMissRate::total      0.034138                       # miss rate for demand accesses (Ratio)
system.cpu.dcache.overallMissRate::cpu.data     0.034147                       # miss rate for overall accesses (Ratio)
system.cpu.dcache.overallMissRate::total     0.034147                       # miss rate for overall accesses (Ratio)
system.cpu.dcache.demandAvgMissLatency::cpu.data 51863.357671                       # average overall miss latency ((Cycle/Count))
system.cpu.dcache.demandAvgMissLatency::total 51863.357671                       # average overall miss latency ((Cycle/Count))
system.cpu.dcache.overallAvgMissLatency::cpu.data 51848.608399                       # average overall miss latency ((Cycle/Count))
system.cpu.dcache.overallAvgMissLatency::total 51848.608399                       # average overall miss latency ((Cycle/Count))
system.cpu.dcache.blockedCycles::no_mshrs        43522                       # number of cycles access was blocked (Cycle)
system.cpu.dcache.blockedCycles::no_targets            0                       # number of cycles access was blocked (Cycle)
system.cpu.dcache.blockedCauses::no_mshrs         1862                       # number of times access was blocked (Count)
system.cpu.dcache.blockedCauses::no_targets            0                       # number of times access was blocked (Count)
system.cpu.dcache.avgBlocked::no_mshrs      23.373792                       # average number of cycles each access was blocked ((Cycle/Count))
system.cpu.dcache.avgBlocked::no_targets          nan                       # average number of cycles each access was blocked ((Cycle/Count))
system.cpu.dcache.writebacks::writebacks         1649                       # number of writebacks (Count)
system.cpu.dcache.writebacks::total              1649                       # number of writebacks (Count)
system.cpu.dcache.demandMshrHits::cpu.data         7606                       # number of demand (read+write) MSHR hits (Count)
system.cpu.dcache.demandMshrHits::total          7606                       # number of demand (read+write) MSHR hits (Count)
system.cpu.dcache.overallMshrHits::cpu.data         7606                       # number of overall MSHR hits (Count)
system.cpu.dcache.overallMshrHits::total         7606                       # number of overall MSHR hits (Count)
system.cpu.dcache.demandMshrMisses::cpu.data         2940                       # number of demand (read+write) MSHR misses (Count)
system.cpu.dcache.demandMshrMisses::total         2940                       # number of demand (read+write) MSHR misses (Count)
system.cpu.dcache.overallMshrMisses::cpu.data         2943                       # number of overall MSHR misses (Count)
system.cpu.dcache.overallMshrMisses::total         2943                       # number of overall MSHR misses (Count)
system.cpu.dcache.demandMshrMissLatency::cpu.data    147492538                       # number of demand (read+write) MSHR miss ticks (Tick)
system.cpu.dcache.demandMshrMissLatency::total    147492538                       # number of demand (read+write) MSHR miss ticks (Tick)
system.cpu.dcache.overallMshrMissLatency::cpu.data    147727538                       # number of overall MSHR miss ticks (Tick)
system.cpu.dcache.overallMshrMissLatency::total    147727538                       # number of overall MSHR miss ticks (Tick)
system.cpu.dcache.demandMshrMissRate::cpu.data     0.009517                       # mshr miss ratio for demand accesses (Ratio)
system.cpu.dcache.demandMshrMissRate::total     0.009517                       # mshr miss ratio for demand accesses (Ratio)
system.cpu.dcache.overallMshrMissRate::cpu.data     0.009526                       # mshr miss ratio for overall accesses (Ratio)
system.cpu.dcache.overallMshrMissRate::total     0.009526                       # mshr miss ratio for overall accesses (Ratio)
system.cpu.dcache.demandAvgMshrMissLatency::cpu.data 50167.529932                       # average overall mshr miss latency ((Cycle/Count))
system.cpu.dcache.demandAvgMshrMissLatency::total 50167.529932                       # average overall mshr miss latency ((Cycle/Count))
system.cpu.dcache.overallAvgMshrMissLatency::cpu.data 50196.241250                       # average overall mshr miss latency ((Cycle/Count))
system.cpu.dcache.overallAvgMshrMissLatency::total 50196.241250                       # average overall mshr miss latency ((Cycle/Count))
system.cpu.dcache.replacements                   2817                       # number of replacements (Count)
system.cpu.dcache.LoadLockedReq.hits::cpu.data            7                       # number of LoadLockedReq hits (Count)
system.cpu.dcache.LoadLockedReq.hits::total            7                       # number of LoadLockedReq hits (Count)
system.cpu.dcache.LoadLockedReq.misses::cpu.data            2                       # number of LoadLockedReq misses (Count)
system.cpu.dcache.LoadLockedReq.misses::total            2                       # number of LoadLockedReq misses (Count)
system.cpu.dcache.LoadLockedReq.missLatency::cpu.data       197000                       # number of LoadLockedReq miss ticks (Tick)
system.cpu.dcache.LoadLockedReq.missLatency::total       197000                       # number of LoadLockedReq miss ticks (Tick)
system.cpu.dcache.LoadLockedReq.accesses::cpu.data            9                       # number of LoadLockedReq accesses(hits+misses) (Count)
system.cpu.dcache.LoadLockedReq.accesses::total            9                       # number of LoadLockedReq accesses(hits+misses) (Count)
system.cpu.dcache.LoadLockedReq.missRate::cpu.data     0.222222                       # miss rate for LoadLockedReq accesses (Ratio)
system.cpu.dcache.LoadLockedReq.missRate::total     0.222222                       # miss rate for LoadLockedReq accesses (Ratio)
system.cpu.dcache.LoadLockedReq.avgMissLatency::cpu.data        98500                       # average LoadLockedReq miss latency ((Tick/Count))
system.cpu.dcache.LoadLockedReq.avgMissLatency::total        98500                       # average LoadLockedReq miss latency ((Tick/Count))
system.cpu.dcache.LoadLockedReq.mshrHits::cpu.data            1                       # number of LoadLockedReq MSHR hits (Count)
system.cpu.dcache.LoadLockedReq.mshrHits::total            1                       # number of LoadLockedReq MSHR hits (Count)
system.cpu.dcache.LoadLockedReq.mshrMisses::cpu.data            1                       # number of LoadLockedReq MSHR misses (Count)
system.cpu.dcache.LoadLockedReq.mshrMisses::total            1                       # number of LoadLockedReq MSHR misses (Count)
system.cpu.dcache.LoadLockedReq.mshrMissLatency::cpu.data        67500                       # number of LoadLockedReq MSHR miss ticks (Tick)
system.cpu.dcache.LoadLockedReq.mshrMissLatency::total        67500                       # number of LoadLockedReq MSHR miss ticks (Tick)
system.cpu.dcache.LoadLockedReq.mshrMissRate::cpu.data     0.111111                       # mshr miss rate for LoadLockedReq accesses (Ratio)
system.cpu.dcache.LoadLockedReq.mshrMissRate::total     0.111111                       # mshr miss rate for LoadLockedReq accesses (Ratio)
system.cpu.dcache.LoadLockedReq.avgMshrMissLatency::cpu.data        67500                       # average LoadLockedReq mshr miss latency ((Tick/Count))
system.cpu.dcache.LoadLockedReq.avgMshrMissLatency::total        67500                       # average LoadLockedReq mshr miss latency ((Tick/Count))
system.cpu.dcache.ReadReq.hits::cpu.data       263509                       # number of ReadReq hits (Count)
system.cpu.dcache.ReadReq.hits::total          263509                       # number of ReadReq hits (Count)
system.cpu.dcache.ReadReq.misses::cpu.data         4769                       # number of ReadReq misses (Count)
system.cpu.dcache.ReadReq.misses::total          4769                       # number of ReadReq misses (Count)
system.cpu.dcache.ReadReq.missLatency::cpu.data    260702000                       # number of ReadReq miss ticks (Tick)
system.cpu.dcache.ReadReq.missLatency::total    260702000                       # number of ReadReq miss ticks (Tick)
system.cpu.dcache.ReadReq.accesses::cpu.data       268278                       # number of ReadReq accesses(hits+misses) (Count)
system.cpu.dcache.ReadReq.accesses::total       268278                       # number of ReadReq accesses(hits+misses) (Count)
system.cpu.dcache.ReadReq.missRate::cpu.data     0.017776                       # miss rate for ReadReq accesses (Ratio)
system.cpu.dcache.ReadReq.missRate::total     0.017776                       # miss rate for ReadReq accesses (Ratio)
system.cpu.dcache.ReadReq.avgMissLatency::cpu.data 54665.967708                       # average ReadReq miss latency ((Tick/Count))
system.cpu.dcache.ReadReq.avgMissLatency::total 54665.967708                       # average ReadReq miss latency ((Tick/Count))
system.cpu.dcache.ReadReq.mshrHits::cpu.data         3503                       # number of ReadReq MSHR hits (Count)
system.cpu.dcache.ReadReq.mshrHits::total         3503                       # number of ReadReq MSHR hits (Count)
system.cpu.dcache.ReadReq.mshrMisses::cpu.data         1266                       # number of ReadReq MSHR misses (Count)
system.cpu.dcache.ReadReq.mshrMisses::total         1266                       # number of ReadReq MSHR misses (Count)
system.cpu.dcache.ReadReq.mshrMissLatency::cpu.data     84671500                       # number of ReadReq MSHR miss ticks (Tick)
system.cpu.dcache.ReadReq.mshrMissLatency::total     84671500                       # number of ReadReq MSHR miss ticks (Tick)
system.cpu.dcache.ReadReq.mshrMissRate::cpu.data     0.004719                       # mshr miss rate for ReadReq accesses (Ratio)
system.cpu.dcache.ReadReq.mshrMissRate::total     0.004719                       # mshr miss rate for ReadReq accesses (Ratio)
system.cpu.dcache.ReadReq.avgMshrMissLatency::cpu.data 66881.121643                       # average ReadReq mshr miss latency ((Tick/Count))
system.cpu.dcache.ReadReq.avgMshrMissLatency::total 66881.121643                       # average ReadReq mshr miss latency ((Tick/Count))
system.cpu.dcache.SoftPFReq.hits::cpu.data            5                       # number of SoftPFReq hits (Count)
system.cpu.dcache.SoftPFReq.hits::total             5                       # number of SoftPFReq hits (Count)
system.cpu.dcache.SoftPFReq.misses::cpu.data            3                       # number of SoftPFReq misses (Count)
system.cpu.dcache.SoftPFReq.misses::total            3                       # number of SoftPFReq misses (Count)
system.cpu.dcache.SoftPFReq.accesses::cpu.data            8                       # number of SoftPFReq accesses(hits+misses) (Count)
system.cpu.dcache.SoftPFReq.accesses::total            8                       # number of SoftPFReq accesses(hits+misses) (Count)
system.cpu.dcache.SoftPFReq.missRate::cpu.data     0.375000                       # miss rate for SoftPFReq accesses (Ratio)
system.cpu.dcache.SoftPFReq.missRate::total     0.375000                       # miss rate for SoftPFReq accesses (Ratio)
system.cpu.dcache.SoftPFReq.mshrMisses::cpu.data            3                       # number of SoftPFReq MSHR misses (Count)
system.cpu.dcache.SoftPFReq.mshrMisses::total            3                       # number of SoftPFReq MSHR misses (Count)
system.cpu.dcache.SoftPFReq.mshrMissLatency::cpu.data       235000                       # number of SoftPFReq MSHR miss ticks (Tick)
system.cpu.dcache.SoftPFReq.mshrMissLatency::total       235000                       # number of SoftPFReq MSHR miss ticks (Tick)
system.cpu.dcache.SoftPFReq.mshrMissRate::cpu.data     0.375000                       # mshr miss rate for SoftPFReq accesses (Ratio)
system.cpu.dcache.SoftPFReq.mshrMissRate::total     0.375000                       # mshr miss rate for SoftPFReq accesses (Ratio)
system.cpu.dcache.SoftPFReq.avgMshrMissLatency::cpu.data 78333.333333                       # average SoftPFReq mshr miss latency ((Tick/Count))
system.cpu.dcache.SoftPFReq.avgMshrMissLatency::total 78333.333333                       # average SoftPFReq mshr miss latency ((Tick/Count))
system.cpu.dcache.StoreCondReq.hits::cpu.data            4                       # number of StoreCondReq hits (Count)
system.cpu.dcache.StoreCondReq.hits::total            4                       # number of StoreCondReq hits (Count)
system.cpu.dcache.StoreCondReq.accesses::cpu.data            4                       # number of StoreCondReq accesses(hits+misses) (Count)
system.cpu.dcache.StoreCondReq.accesses::total            4                       # number of StoreCondReq accesses(hits+misses) (Count)
system.cpu.dcache.SwapReq.hits::cpu.data           13                       # number of SwapReq hits (Count)
system.cpu.dcache.SwapReq.hits::total              13                       # number of SwapReq hits (Count)
system.cpu.dcache.SwapReq.misses::cpu.data            1                       # number of SwapReq misses (Count)
system.cpu.dcache.SwapReq.misses::total             1                       # number of SwapReq misses (Count)
system.cpu.dcache.SwapReq.missLatency::cpu.data       149000                       # number of SwapReq miss ticks (Tick)
system.cpu.dcache.SwapReq.missLatency::total       149000                       # number of SwapReq miss ticks (Tick)
system.cpu.dcache.SwapReq.accesses::cpu.data           14                       # number of SwapReq accesses(hits+misses) (Count)
system.cpu.dcache.SwapReq.accesses::total           14                       # number of SwapReq accesses(hits+misses) (Count)
system.cpu.dcache.SwapReq.missRate::cpu.data     0.071429                       # miss rate for SwapReq accesses (Ratio)
system.cpu.dcache.SwapReq.missRate::total     0.071429                       # miss rate for SwapReq accesses (Ratio)
system.cpu.dcache.SwapReq.avgMissLatency::cpu.data       149000                       # average SwapReq miss latency ((Tick/Count))
system.cpu.dcache.SwapReq.avgMissLatency::total       149000                       # average SwapReq miss latency ((Tick/Count))
system.cpu.dcache.SwapReq.mshrMisses::cpu.data            1                       # number of SwapReq MSHR misses (Count)
system.cpu.dcache.SwapReq.mshrMisses::total            1                       # number of SwapReq MSHR misses (Count)
system.cpu.dcache.SwapReq.mshrMissLatency::cpu.data       148000                       # number of SwapReq MSHR miss ticks (Tick)
system.cpu.dcache.SwapReq.mshrMissLatency::total       148000                       # number of SwapReq MSHR miss ticks (Tick)
system.cpu.dcache.SwapReq.mshrMissRate::cpu.data     0.071429                       # mshr miss rate for SwapReq accesses (Ratio)
system.cpu.dcache.SwapReq.mshrMissRate::total     0.071429                       # mshr miss rate for SwapReq accesses (Ratio)
system.cpu.dcache.SwapReq.avgMshrMissLatency::cpu.data       148000                       # average SwapReq mshr miss latency ((Tick/Count))
system.cpu.dcache.SwapReq.avgMshrMissLatency::total       148000                       # average SwapReq mshr miss latency ((Tick/Count))
system.cpu.dcache.WriteLineReq.hits::cpu.data            1                       # number of WriteLineReq hits (Count)
system.cpu.dcache.WriteLineReq.hits::total            1                       # number of WriteLineReq hits (Count)
system.cpu.dcache.WriteLineReq.misses::cpu.data         1014                       # number of WriteLineReq misses (Count)
system.cpu.dcache.WriteLineReq.misses::total         1014                       # number of WriteLineReq misses (Count)
system.cpu.dcache.WriteLineReq.missLatency::cpu.data     18749223                       # number of WriteLineReq miss ticks (Tick)
system.cpu.dcache.WriteLineReq.missLatency::total     18749223                       # number of WriteLineReq miss ticks (Tick)
system.cpu.dcache.WriteLineReq.accesses::cpu.data         1015                       # number of WriteLineReq accesses(hits+misses) (Count)
system.cpu.dcache.WriteLineReq.accesses::total         1015                       # number of WriteLineReq accesses(hits+misses) (Count)
system.cpu.dcache.WriteLineReq.missRate::cpu.data     0.999015                       # miss rate for WriteLineReq accesses (Ratio)
system.cpu.dcache.WriteLineReq.missRate::total     0.999015                       # miss rate for WriteLineReq accesses (Ratio)
system.cpu.dcache.WriteLineReq.avgMissLatency::cpu.data 18490.357988                       # average WriteLineReq miss latency ((Tick/Count))
system.cpu.dcache.WriteLineReq.avgMissLatency::total 18490.357988                       # average WriteLineReq miss latency ((Tick/Count))
system.cpu.dcache.WriteLineReq.mshrMisses::cpu.data         1014                       # number of WriteLineReq MSHR misses (Count)
system.cpu.dcache.WriteLineReq.mshrMisses::total         1014                       # number of WriteLineReq MSHR misses (Count)
system.cpu.dcache.WriteLineReq.mshrMissLatency::cpu.data     17735223                       # number of WriteLineReq MSHR miss ticks (Tick)
system.cpu.dcache.WriteLineReq.mshrMissLatency::total     17735223                       # number of WriteLineReq MSHR miss ticks (Tick)
system.cpu.dcache.WriteLineReq.mshrMissRate::cpu.data     0.999015                       # mshr miss rate for WriteLineReq accesses (Ratio)
system.cpu.dcache.WriteLineReq.mshrMissRate::total     0.999015                       # mshr miss rate for WriteLineReq accesses (Ratio)
system.cpu.dcache.WriteLineReq.avgMshrMissLatency::cpu.data 17490.357988                       # average WriteLineReq mshr miss latency ((Tick/Count))
system.cpu.dcache.WriteLineReq.avgMshrMissLatency::total 17490.357988                       # average WriteLineReq mshr miss latency ((Tick/Count))
system.cpu.dcache.WriteReq.hits::cpu.data        34865                       # number of WriteReq hits (Count)
system.cpu.dcache.WriteReq.hits::total          34865                       # number of WriteReq hits (Count)
system.cpu.dcache.WriteReq.misses::cpu.data         4763                       # number of WriteReq misses (Count)
system.cpu.dcache.WriteReq.misses::total         4763                       # number of WriteReq misses (Count)
system.cpu.dcache.WriteReq.missLatency::cpu.data    267499747                       # number of WriteReq miss ticks (Tick)
system.cpu.dcache.WriteReq.missLatency::total    267499747                       # number of WriteReq miss ticks (Tick)
system.cpu.dcache.WriteReq.accesses::cpu.data        39628                       # number of WriteReq accesses(hits+misses) (Count)
system.cpu.dcache.WriteReq.accesses::total        39628                       # number of WriteReq accesses(hits+misses) (Count)
system.cpu.dcache.WriteReq.missRate::cpu.data     0.120193                       # miss rate for WriteReq accesses (Ratio)
system.cpu.dcache.WriteReq.missRate::total     0.120193                       # miss rate for WriteReq accesses (Ratio)
system.cpu.dcache.WriteReq.avgMissLatency::cpu.data 56162.029603                       # average WriteReq miss latency ((Tick/Count))
system.cpu.dcache.WriteReq.avgMissLatency::total 56162.029603                       # average WriteReq miss latency ((Tick/Count))
system.cpu.dcache.WriteReq.mshrHits::cpu.data         4103                       # number of WriteReq MSHR hits (Count)
system.cpu.dcache.WriteReq.mshrHits::total         4103                       # number of WriteReq MSHR hits (Count)
system.cpu.dcache.WriteReq.mshrMisses::cpu.data          660                       # number of WriteReq MSHR misses (Count)
system.cpu.dcache.WriteReq.mshrMisses::total          660                       # number of WriteReq MSHR misses (Count)
system.cpu.dcache.WriteReq.mshrMissLatency::cpu.data     45085815                       # number of WriteReq MSHR miss ticks (Tick)
system.cpu.dcache.WriteReq.mshrMissLatency::total     45085815                       # number of WriteReq MSHR miss ticks (Tick)
system.cpu.dcache.WriteReq.mshrMissRate::cpu.data     0.016655                       # mshr miss rate for WriteReq accesses (Ratio)
system.cpu.dcache.WriteReq.mshrMissRate::total     0.016655                       # mshr miss rate for WriteReq accesses (Ratio)
system.cpu.dcache.WriteReq.avgMshrMissLatency::cpu.data 68311.840909                       # average WriteReq mshr miss latency ((Tick/Count))
system.cpu.dcache.WriteReq.avgMshrMissLatency::total 68311.840909                       # average WriteReq mshr miss latency ((Tick/Count))
system.cpu.dcache.power_state.pwrStateResidencyTicks::UNDEFINED    265435000                       # Cumulative time (in ticks) in various power states (Tick)
system.cpu.dcache.tags.tagsInUse           124.706032                       # Average ticks per tags in use ((Tick/Count))
system.cpu.dcache.tags.totalRefs               301349                       # Total number of references to valid blocks. (Count)
system.cpu.dcache.tags.sampledRefs               2945                       # Sample count of references to valid blocks. (Count)
system.cpu.dcache.tags.avgRefs             102.325637                       # Average number of references to valid blocks. ((Count/Count))
system.cpu.dcache.tags.warmupTick              145000                       # The tick when the warmup percentage was hit. (Tick)
system.cpu.dcache.tags.occupancies::cpu.data   124.706032                       # Average occupied blocks per tick, per requestor ((Count/Tick))
system.cpu.dcache.tags.avgOccs::cpu.data     0.974266                       # Average percentage of cache occupancy ((Ratio/Tick))
system.cpu.dcache.tags.avgOccs::total        0.974266                       # Average percentage of cache occupancy ((Ratio/Tick))
system.cpu.dcache.tags.occupanciesTaskId::1024          128                       # Occupied blocks per task id (Count)
system.cpu.dcache.tags.ageTaskId_1024::0           54                       # Occupied blocks per task id, per block age (Count)
system.cpu.dcache.tags.ageTaskId_1024::1           74                       # Occupied blocks per task id, per block age (Count)
system.cpu.dcache.tags.ratioOccsTaskId::1024            1                       # Ratio of occupied blocks and all blocks, per task id (Ratio)
system.cpu.dcache.tags.tagAccesses             620857                       # Number of tag accesses (Count)
system.cpu.dcache.tags.dataAccesses            620857                       # Number of data accesses (Count)
system.cpu.dcache.tags.power_state.pwrStateResidencyTicks::UNDEFINED    265435000                       # Cumulative time (in ticks) in various power states (Tick)
system.cpu.decode.idleCycles                   146243                       # Number of cycles decode is idle (Cycle)
system.cpu.decode.blockedCycles                104807                       # Number of cycles decode is blocked (Cycle)
system.cpu.decode.runCycles                    232280                       # Number of cycles decode is running (Cycle)
system.cpu.decode.unblockCycles                  3805                       # Number of cycles decode is unblocking (Cycle)
system.cpu.decode.squashCycles                   1334                       # Number of cycles decode is squashing (Cycle)
system.cpu.decode.branchResolved               169488                       # Number of times decode resolved a branch (Count)
system.cpu.decode.branchMispred                   333                       # Number of times decode detected a branch misprediction (Count)
system.cpu.decode.decodedInsts                 888238                       # Number of instructions handled by decode (Count)
system.cpu.decode.squashedInsts                  1128                       # Number of squashed instructions handled by decode (Count)
system.cpu.fetch.icacheStallCycles             153779                       # Number of cycles fetch is stalled on an Icache miss (Cycle)
system.cpu.fetch.insts                         887382                       # Number of instructions fetch has processed (Count)
system.cpu.fetch.branches                      175851                       # Number of branches that fetch encountered (Count)
system.cpu.fetch.predictedBranches             170622                       # Number of branches that fetch has predicted taken (Count)
system.cpu.fetch.cycles                        333030                       # Number of cycles fetch has run and was not squashing or blocked (Cycle)
system.cpu.fetch.squashCycles                    3320                       # Number of cycles fetch has spent squashing (Cycle)
system.cpu.fetch.cacheLines                    139643                       # Number of cache lines fetched (Count)
system.cpu.fetch.icacheSquashes                  1139                       # Number of outstanding Icache misses that were squashed (Count)
system.cpu.fetch.nisnDist::samples             488469                       # Number of instructions fetched each cycle (Total) (Count)
system.cpu.fetch.nisnDist::mean              1.840663                       # Number of instructions fetched each cycle (Total) (Count)
system.cpu.fetch.nisnDist::stdev             2.354200                       # Number of instructions fetched each cycle (Total) (Count)
system.cpu.fetch.nisnDist::underflows               0      0.00%      0.00% # Number of instructions fetched each cycle (Total) (Count)
system.cpu.fetch.nisnDist::0                   244316     50.02%     50.02% # Number of instructions fetched each cycle (Total) (Count)
system.cpu.fetch.nisnDist::1                    34060      6.97%     56.99% # Number of instructions fetched each cycle (Total) (Count)
system.cpu.fetch.nisnDist::2                    66919     13.70%     70.69% # Number of instructions fetched each cycle (Total) (Count)
system.cpu.fetch.nisnDist::3                    34084      6.98%     77.67% # Number of instructions fetched each cycle (Total) (Count)
system.cpu.fetch.nisnDist::4                     2561      0.52%     78.19% # Number of instructions fetched each cycle (Total) (Count)
system.cpu.fetch.nisnDist::5                    65968     13.51%     91.70% # Number of instructions fetched each cycle (Total) (Count)
system.cpu.fetch.nisnDist::6                      911      0.19%     91.88% # Number of instructions fetched each cycle (Total) (Count)
system.cpu.fetch.nisnDist::7                    33793      6.92%     98.80% # Number of instructions fetched each cycle (Total) (Count)
system.cpu.fetch.nisnDist::8                     5857      1.20%    100.00% # Number of instructions fetched each cycle (Total) (Count)
system.cpu.fetch.nisnDist::overflows                0      0.00%    100.00% # Number of instructions fetched each cycle (Total) (Count)
system.cpu.fetch.nisnDist::min_value                0                       # Number of instructions fetched each cycle (Total) (Count)
system.cpu.fetch.nisnDist::max_value                8                       # Number of instructions fetched each cycle (Total) (Count)
system.cpu.fetch.nisnDist::total               488469                       # Number of instructions fetched each cycle (Total) (Count)
system.cpu.fetch.branchRate                  0.331250                       # Number of branch fetches per cycle (Ratio)
system.cpu.fetch.rate                        1.671559                       # Number of inst fetches per cycle ((Count/Cycle))
system.cpu.icache.demandHits::cpu.inst         138767                       # number of demand (read+write) hits (Count)
system.cpu.icache.demandHits::total            138767                       # number of demand (read+write) hits (Count)
system.cpu.icache.overallHits::cpu.inst        138767                       # number of overall hits (Count)
system.cpu.icache.overallHits::total           138767                       # number of overall hits (Count)
system.cpu.icache.demandMisses::cpu.inst          876                       # number of demand (read+write) misses (Count)
system.cpu.icache.demandMisses::total             876                       # number of demand (read+write) misses (Count)
system.cpu.icache.overallMisses::cpu.inst          876                       # number of overall misses (Count)
system.cpu.icache.overallMisses::total            876                       # number of overall misses (Count)
system.cpu.icache.demandMissLatency::cpu.inst     55238500                       # number of demand (read+write) miss ticks (Tick)
system.cpu.icache.demandMissLatency::total     55238500                       # number of demand (read+write) miss ticks (Tick)
system.cpu.icache.overallMissLatency::cpu.inst     55238500                       # number of overall miss ticks (Tick)
system.cpu.icache.overallMissLatency::total     55238500                       # number of overall miss ticks (Tick)
system.cpu.icache.demandAccesses::cpu.inst       139643                       # number of demand (read+write) accesses (Count)
system.cpu.icache.demandAccesses::total        139643                       # number of demand (read+write) accesses (Count)
system.cpu.icache.overallAccesses::cpu.inst       139643                       # number of overall (read+write) accesses (Count)
system.cpu.icache.overallAccesses::total       139643                       # number of overall (read+write) accesses (Count)
system.cpu.icache.demandMissRate::cpu.inst     0.006273                       # miss rate for demand accesses (Ratio)
system.cpu.icache.demandMissRate::total      0.006273                       # miss rate for demand accesses (Ratio)
system.cpu.icache.overallMissRate::cpu.inst     0.006273                       # miss rate for overall accesses (Ratio)
system.cpu.icache.overallMissRate::total     0.006273                       # miss rate for overall accesses (Ratio)
system.cpu.icache.demandAvgMissLatency::cpu.inst 63057.648402                       # average overall miss latency ((Cycle/Count))
system.cpu.icache.demandAvgMissLatency::total 63057.648402                       # average overall miss latency ((Cycle/Count))
system.cpu.icache.overallAvgMissLatency::cpu.inst 63057.648402                       # average overall miss latency ((Cycle/Count))
system.cpu.icache.overallAvgMissLatency::total 63057.648402                       # average overall miss latency ((Cycle/Count))
system.cpu.icache.blockedCycles::no_mshrs          482                       # number of cycles access was blocked (Cycle)
system.cpu.icache.blockedCycles::no_targets            0                       # number of cycles access was blocked (Cycle)
system.cpu.icache.blockedCauses::no_mshrs            7                       # number of times access was blocked (Count)
system.cpu.icache.blockedCauses::no_targets            0                       # number of times access was blocked (Count)
system.cpu.icache.avgBlocked::no_mshrs      68.857143                       # average number of cycles each access was blocked ((Cycle/Count))
system.cpu.icache.avgBlocked::no_targets          nan                       # average number of cycles each access was blocked ((Cycle/Count))
system.cpu.icache.writebacks::writebacks          214                       # number of writebacks (Count)
system.cpu.icache.writebacks::total               214                       # number of writebacks (Count)
system.cpu.icache.demandMshrHits::cpu.inst          218                       # number of demand (read+write) MSHR hits (Count)
system.cpu.icache.demandMshrHits::total           218                       # number of demand (read+write) MSHR hits (Count)
system.cpu.icache.overallMshrHits::cpu.inst          218                       # number of overall MSHR hits (Count)
system.cpu.icache.overallMshrHits::total          218                       # number of overall MSHR hits (Count)
system.cpu.icache.demandMshrMisses::cpu.inst          658                       # number of demand (read+write) MSHR misses (Count)
system.cpu.icache.demandMshrMisses::total          658                       # number of demand (read+write) MSHR misses (Count)
system.cpu.icache.overallMshrMisses::cpu.inst          658                       # number of overall MSHR misses (Count)
system.cpu.icache.overallMshrMisses::total          658                       # number of overall MSHR misses (Count)
system.cpu.icache.demandMshrMissLatency::cpu.inst     43211500                       # number of demand (read+write) MSHR miss ticks (Tick)
system.cpu.icache.demandMshrMissLatency::total     43211500                       # number of demand (read+write) MSHR miss ticks (Tick)
system.cpu.icache.overallMshrMissLatency::cpu.inst     43211500                       # number of overall MSHR miss ticks (Tick)
system.cpu.icache.overallMshrMissLatency::total     43211500                       # number of overall MSHR miss ticks (Tick)
system.cpu.icache.demandMshrMissRate::cpu.inst     0.004712                       # mshr miss ratio for demand accesses (Ratio)
system.cpu.icache.demandMshrMissRate::total     0.004712                       # mshr miss ratio for demand accesses (Ratio)
system.cpu.icache.overallMshrMissRate::cpu.inst     0.004712                       # mshr miss ratio for overall accesses (Ratio)
system.cpu.icache.overallMshrMissRate::total     0.004712                       # mshr miss ratio for overall accesses (Ratio)
system.cpu.icache.demandAvgMshrMissLatency::cpu.inst 65670.972644                       # average overall mshr miss latency ((Cycle/Count))
system.cpu.icache.demandAvgMshrMissLatency::total 65670.972644                       # average overall mshr miss latency ((Cycle/Count))
system.cpu.icache.overallAvgMshrMissLatency::cpu.inst 65670.972644                       # average overall mshr miss latency ((Cycle/Count))
system.cpu.icache.overallAvgMshrMissLatency::total 65670.972644                       # average overall mshr miss latency ((Cycle/Count))
system.cpu.icache.replacements                    214                       # number of replacements (Count)
system.cpu.icache.ReadReq.hits::cpu.inst       138767                       # number of ReadReq hits (Count)
system.cpu.icache.ReadReq.hits::total          138767                       # number of ReadReq hits (Count)
system.cpu.icache.ReadReq.misses::cpu.inst          876                       # number of ReadReq misses (Count)
system.cpu.icache.ReadReq.misses::total           876                       # number of ReadReq misses (Count)
system.cpu.icache.ReadReq.missLatency::cpu.inst     55238500                       # number of ReadReq miss ticks (Tick)
system.cpu.icache.ReadReq.missLatency::total     55238500                       # number of ReadReq miss ticks (Tick)
system.cpu.icache.ReadReq.accesses::cpu.inst       139643                       # number of ReadReq accesses(hits+misses) (Count)
system.cpu.icache.ReadReq.accesses::total       139643                       # number of ReadReq accesses(hits+misses) (Count)
system.cpu.icache.ReadReq.missRate::cpu.inst     0.006273                       # miss rate for ReadReq accesses (Ratio)
system.cpu.icache.ReadReq.missRate::total     0.006273                       # miss rate for ReadReq accesses (Ratio)
system.cpu.icache.ReadReq.avgMissLatency::cpu.inst 63057.648402                       # average ReadReq miss latency ((Tick/Count))
system.cpu.icache.ReadReq.avgMissLatency::total 63057.648402                       # average ReadReq miss latency ((Tick/Count))
system.cpu.icache.ReadReq.mshrHits::cpu.inst          218                       # number of ReadReq MSHR hits (Count)
system.cpu.icache.ReadReq.mshrHits::total          218                       # number of ReadReq MSHR hits (Count)
system.cpu.icache.ReadReq.mshrMisses::cpu.inst          658                       # number of ReadReq MSHR misses (Count)
system.cpu.icache.ReadReq.mshrMisses::total          658                       # number of ReadReq MSHR misses (Count)
system.cpu.icache.ReadReq.mshrMissLatency::cpu.inst     43211500                       # number of ReadReq MSHR miss ticks (Tick)
system.cpu.icache.ReadReq.mshrMissLatency::total     43211500                       # number of ReadReq MSHR miss ticks (Tick)
system.cpu.icache.ReadReq.mshrMissRate::cpu.inst     0.004712                       # mshr miss rate for ReadReq accesses (Ratio)
system.cpu.icache.ReadReq.mshrMissRate::total     0.004712                       # mshr miss rate for ReadReq accesses (Ratio)
system.cpu.icache.ReadReq.avgMshrMissLatency::cpu.inst 65670.972644                       # average ReadReq mshr miss latency ((Tick/Count))
system.cpu.icache.ReadReq.avgMshrMissLatency::total 65670.972644                       # average ReadReq mshr miss latency ((Tick/Count))
system.cpu.icache.power_state.pwrStateResidencyTicks::UNDEFINED    265435000                       # Cumulative time (in ticks) in various power states (Tick)
system.cpu.icache.tags.tagsInUse           325.532594                       # Average ticks per tags in use ((Tick/Count))
system.cpu.icache.tags.totalRefs               139424                       # Total number of references to valid blocks. (Count)
system.cpu.icache.tags.sampledRefs                657                       # Sample count of references to valid blocks. (Count)
system.cpu.icache.tags.avgRefs             212.213090                       # Average number of references to valid blocks. ((Count/Count))
system.cpu.icache.tags.warmupTick               77000                       # The tick when the warmup percentage was hit. (Tick)
system.cpu.icache.tags.occupancies::cpu.inst   325.532594                       # Average occupied blocks per tick, per requestor ((Count/Tick))
system.cpu.icache.tags.avgOccs::cpu.inst     0.635806                       # Average percentage of cache occupancy ((Ratio/Tick))
system.cpu.icache.tags.avgOccs::total        0.635806                       # Average percentage of cache occupancy ((Ratio/Tick))
system.cpu.icache.tags.occupanciesTaskId::1024          443                       # Occupied blocks per task id (Count)
system.cpu.icache.tags.ageTaskId_1024::0          158                       # Occupied blocks per task id, per block age (Count)
system.cpu.icache.tags.ageTaskId_1024::1           81                       # Occupied blocks per task id, per block age (Count)
system.cpu.icache.tags.ageTaskId_1024::2          204                       # Occupied blocks per task id, per block age (Count)
system.cpu.icache.tags.ratioOccsTaskId::1024     0.865234                       # Ratio of occupied blocks and all blocks, per task id (Ratio)
system.cpu.icache.tags.tagAccesses             279943                       # Number of tag accesses (Count)
system.cpu.icache.tags.dataAccesses            279943                       # Number of data accesses (Count)
system.cpu.icache.tags.power_state.pwrStateResidencyTicks::UNDEFINED    265435000                       # Cumulative time (in ticks) in various power states (Tick)
system.cpu.iew.idleCycles                           0                       # Number of cycles IEW is idle (Cycle)
[...]
system.mem_ctrls.dram.bwRead::cpu.inst      158652778                       # Total read bandwidth from this memory ((Byte/Second))
system.mem_ctrls.dram.bwRead::cpu.data      454981446                       # Total read bandwidth from this memory ((Byte/Second))
system.mem_ctrls.dram.bwRead::total         613634223                       # Total read bandwidth from this memory ((Byte/Second))
system.mem_ctrls.dram.bwInstRead::cpu.inst    158652778                       # Instruction read bandwidth from this memory ((Byte/Second))
system.mem_ctrls.dram.bwInstRead::total     158652778                       # Instruction read bandwidth from this memory ((Byte/Second))
system.mem_ctrls.dram.bwWrite::writebacks    397596398                       # Write bandwidth from this memory ((Byte/Second))
system.mem_ctrls.dram.bwWrite::total        397596398                       # Write bandwidth from this memory ((Byte/Second))
system.mem_ctrls.dram.bwTotal::writebacks    397596398                       # Total bandwidth to/from this memory ((Byte/Second))
system.mem_ctrls.dram.bwTotal::cpu.inst     158652778                       # Total bandwidth to/from this memory ((Byte/Second))
system.mem_ctrls.dram.bwTotal::cpu.data     454981446                       # Total bandwidth to/from this memory ((Byte/Second))
system.mem_ctrls.dram.bwTotal::total       1011230621                       # Total bandwidth to/from this memory ((Byte/Second))
system.mem_ctrls.dram.readBursts                 2501                       # Number of DRAM read bursts (Count)
system.mem_ctrls.dram.writeBursts                1836                       # Number of DRAM write bursts (Count)
system.mem_ctrls.dram.perBankRdBursts::0          151                       # Per bank write bursts (Count)
system.mem_ctrls.dram.perBankRdBursts::1          206                       # Per bank write bursts (Count)
system.mem_ctrls.dram.perBankRdBursts::2          151                       # Per bank write bursts (Count)
system.mem_ctrls.dram.perBankRdBursts::3           59                       # Per bank write bursts (Count)
system.mem_ctrls.dram.perBankRdBursts::4          258                       # Per bank write bursts (Count)
system.mem_ctrls.dram.perBankRdBursts::5          281                       # Per bank write bursts (Count)
system.mem_ctrls.dram.perBankRdBursts::6          251                       # Per bank write bursts (Count)
system.mem_ctrls.dram.perBankRdBursts::7          252                       # Per bank write bursts (Count)
system.mem_ctrls.dram.perBankRdBursts::8          151                       # Per bank write bursts (Count)
system.mem_ctrls.dram.perBankRdBursts::9          160                       # Per bank write bursts (Count)
system.mem_ctrls.dram.perBankRdBursts::10          148                       # Per bank write bursts (Count)
system.mem_ctrls.dram.perBankRdBursts::11          160                       # Per bank write bursts (Count)
system.mem_ctrls.dram.perBankRdBursts::12          101                       # Per bank write bursts (Count)
system.mem_ctrls.dram.perBankRdBursts::13           43                       # Per bank write bursts (Count)
system.mem_ctrls.dram.perBankRdBursts::14           28                       # Per bank write bursts (Count)
system.mem_ctrls.dram.perBankRdBursts::15          101                       # Per bank write bursts (Count)
system.mem_ctrls.dram.perBankWrBursts::0            8                       # Per bank write bursts (Count)
system.mem_ctrls.dram.perBankWrBursts::1          102                       # Per bank write bursts (Count)
system.mem_ctrls.dram.perBankWrBursts::2           99                       # Per bank write bursts (Count)
system.mem_ctrls.dram.perBankWrBursts::3           14                       # Per bank write bursts (Count)
system.mem_ctrls.dram.perBankWrBursts::4          239                       # Per bank write bursts (Count)
system.mem_ctrls.dram.perBankWrBursts::5          272                       # Per bank write bursts (Count)
system.mem_ctrls.dram.perBankWrBursts::6          256                       # Per bank write bursts (Count)
system.mem_ctrls.dram.perBankWrBursts::7          257                       # Per bank write bursts (Count)
system.mem_ctrls.dram.perBankWrBursts::8          138                       # Per bank write bursts (Count)
system.mem_ctrls.dram.perBankWrBursts::9          133                       # Per bank write bursts (Count)
system.mem_ctrls.dram.perBankWrBursts::10          128                       # Per bank write bursts (Count)
system.mem_ctrls.dram.perBankWrBursts::11          125                       # Per bank write bursts (Count)
system.mem_ctrls.dram.perBankWrBursts::12           22                       # Per bank write bursts (Count)
system.mem_ctrls.dram.perBankWrBursts::13            2                       # Per bank write bursts (Count)
system.mem_ctrls.dram.perBankWrBursts::14            9                       # Per bank write bursts (Count)
system.mem_ctrls.dram.perBankWrBursts::15           32                       # Per bank write bursts (Count)
system.mem_ctrls.dram.totQLat                43592000                       # Total ticks spent queuing (Tick)
system.mem_ctrls.dram.totBusLat              12505000                       # Total ticks spent in databus transfers (Tick)
system.mem_ctrls.dram.totMemAccLat           90485750                       # Total ticks spent from burst creation until serviced by the DRAM (Tick)
system.mem_ctrls.dram.avgQLat                17429.83                       # Average queueing delay per DRAM burst ((Tick/Count))
system.mem_ctrls.dram.avgBusLat               5000.00                       # Average bus latency per DRAM burst ((Tick/Count))
system.mem_ctrls.dram.avgMemAccLat           36179.83                       # Average memory access latency per DRAM burst ((Tick/Count))
system.mem_ctrls.dram.readRowHits                2106                       # Number of row buffer hits during reads (Count)
system.mem_ctrls.dram.writeRowHits               1651                       # Number of row buffer hits during writes (Count)
system.mem_ctrls.dram.readRowHitRate            84.21                       # Row buffer hit rate for reads (Ratio)
system.mem_ctrls.dram.writeRowHitRate           89.92                       # Row buffer hit rate for writes (Ratio)
system.mem_ctrls.dram.bytesPerActivate::samples          576                       # Bytes accessed per row activation (Byte)
system.mem_ctrls.dram.bytesPerActivate::mean          481                       # Bytes accessed per row activation (Byte)
system.mem_ctrls.dram.bytesPerActivate::gmean   294.795512                       # Bytes accessed per row activation (Byte)
system.mem_ctrls.dram.bytesPerActivate::stdev   406.964210                       # Bytes accessed per row activation (Byte)
system.mem_ctrls.dram.bytesPerActivate::0-127          116     20.14%     20.14% # Bytes accessed per row activation (Byte)
system.mem_ctrls.dram.bytesPerActivate::128-255          150     26.04%     46.18% # Bytes accessed per row activation (Byte)
system.mem_ctrls.dram.bytesPerActivate::256-383           46      7.99%     54.17% # Bytes accessed per row activation (Byte)
system.mem_ctrls.dram.bytesPerActivate::384-511           36      6.25%     60.42% # Bytes accessed per row activation (Byte)
system.mem_ctrls.dram.bytesPerActivate::512-639           21      3.65%     64.06% # Bytes accessed per row activation (Byte)
system.mem_ctrls.dram.bytesPerActivate::640-767            6      1.04%     65.10% # Bytes accessed per row activation (Byte)
system.mem_ctrls.dram.bytesPerActivate::768-895           10      1.74%     66.84% # Bytes accessed per row activation (Byte)
system.mem_ctrls.dram.bytesPerActivate::896-1023            4      0.69%     67.53% # Bytes accessed per row activation (Byte)
system.mem_ctrls.dram.bytesPerActivate::1024-1151          187     32.47%    100.00% # Bytes accessed per row activation (Byte)
system.mem_ctrls.dram.bytesPerActivate::total          576                       # Bytes accessed per row activation (Byte)
system.mem_ctrls.dram.bytesRead                160064                       # Total bytes read (Byte)
system.mem_ctrls.dram.bytesWritten             117504                       # Total bytes written (Byte)
system.mem_ctrls.dram.avgRdBW              603.025223                       # Average DRAM read bandwidth in MiBytes/s ((Byte/Second))
system.mem_ctrls.dram.avgWrBW              442.684650                       # Average DRAM write bandwidth in MiBytes/s ((Byte/Second))
system.mem_ctrls.dram.peakBW                 12800.00                       # Theoretical peak bandwidth in MiByte/s ((Byte/Second))
system.mem_ctrls.dram.busUtil                    8.17                       # Data bus utilization in percentage (Ratio)
system.mem_ctrls.dram.busUtilRead                4.71                       # Data bus utilization in percentage for reads (Ratio)
system.mem_ctrls.dram.busUtilWrite               3.46                       # Data bus utilization in percentage for writes (Ratio)
system.mem_ctrls.dram.pageHitRate               86.63                       # Row buffer hit rate, read and write combined (Ratio)
system.mem_ctrls.dram.power_state.pwrStateResidencyTicks::UNDEFINED    265435000                       # Cumulative time (in ticks) in various power states (Tick)
system.mem_ctrls.dram.rank0.actEnergy         2913120                       # Energy for activate commands per rank (pJ) (Joule)
system.mem_ctrls.dram.rank0.preEnergy         1540770                       # Energy for precharge commands per rank (pJ) (Joule)
system.mem_ctrls.dram.rank0.readEnergy       11488260                       # Energy for read commands per rank (pJ) (Joule)
system.mem_ctrls.dram.rank0.writeEnergy       6509340                       # Energy for write commands per rank (pJ) (Joule)
system.mem_ctrls.dram.rank0.refreshEnergy 20897760.000000                       # Energy for refresh commands per rank (pJ) (Joule)
system.mem_ctrls.dram.rank0.actBackEnergy    107218710                       # Energy for active background per rank (pJ) (Joule)
system.mem_ctrls.dram.rank0.preBackEnergy     11637600                       # Energy for precharge background per rank (pJ) (Joule)
system.mem_ctrls.dram.rank0.actPowerDownEnergy            0                       # Energy for active power-down per rank (pJ) (Joule)
system.mem_ctrls.dram.rank0.prePowerDownEnergy            0                       # Energy for precharge power-down per rank (pJ) (Joule)
system.mem_ctrls.dram.rank0.selfRefreshEnergy            0                       # Energy for self refresh per rank (pJ) (Joule)
system.mem_ctrls.dram.rank0.totalEnergy     162205560                       # Total energy per rank (pJ) (Joule)
system.mem_ctrls.dram.rank0.averagePower   611.093337                       # Core power per rank (mW) (Watt)
system.mem_ctrls.dram.rank0.totalIdleTime            0                       # Total Idle time Per DRAM Rank (Tick)
system.mem_ctrls.dram.rank0.pwrStateTime::IDLE     29120000                       # Time in different power states (Tick)
system.mem_ctrls.dram.rank0.pwrStateTime::REF      8840000                       # Time in different power states (Tick)
system.mem_ctrls.dram.rank0.pwrStateTime::SREF            0                       # Time in different power states (Tick)
system.mem_ctrls.dram.rank0.pwrStateTime::PRE_PDN            0                       # Time in different power states (Tick)
system.mem_ctrls.dram.rank0.pwrStateTime::ACT    227475000                       # Time in different power states (Tick)
system.mem_ctrls.dram.rank0.pwrStateTime::ACT_PDN            0                       # Time in different power states (Tick)
system.mem_ctrls.dram.rank1.actEnergy         1228080                       # Energy for activate commands per rank (pJ) (Joule)
system.mem_ctrls.dram.rank1.preEnergy          645150                       # Energy for precharge commands per rank (pJ) (Joule)
system.mem_ctrls.dram.rank1.readEnergy        6368880                       # Energy for read commands per rank (pJ) (Joule)
system.mem_ctrls.dram.rank1.writeEnergy       3074580                       # Energy for write commands per rank (pJ) (Joule)
system.mem_ctrls.dram.rank1.refreshEnergy 20897760.000000                       # Energy for refresh commands per rank (pJ) (Joule)
system.mem_ctrls.dram.rank1.actBackEnergy     45790950                       # Energy for active background per rank (pJ) (Joule)
system.mem_ctrls.dram.rank1.preBackEnergy     63366240                       # Energy for precharge background per rank (pJ) (Joule)
system.mem_ctrls.dram.rank1.actPowerDownEnergy            0                       # Energy for active power-down per rank (pJ) (Joule)
system.mem_ctrls.dram.rank1.prePowerDownEnergy            0                       # Energy for precharge power-down per rank (pJ) (Joule)
system.mem_ctrls.dram.rank1.selfRefreshEnergy            0                       # Energy for self refresh per rank (pJ) (Joule)
system.mem_ctrls.dram.rank1.totalEnergy     141371640                       # Total energy per rank (pJ) (Joule)
system.mem_ctrls.dram.rank1.averagePower   532.603613                       # Core power per rank (mW) (Watt)
system.mem_ctrls.dram.rank1.totalIdleTime            0                       # Total Idle time Per DRAM Rank (Tick)
system.mem_ctrls.dram.rank1.pwrStateTime::IDLE    164242250                       # Time in different power states (Tick)
system.mem_ctrls.dram.rank1.pwrStateTime::REF      8840000                       # Time in different power states (Tick)
system.mem_ctrls.dram.rank1.pwrStateTime::SREF            0                       # Time in different power states (Tick)
system.mem_ctrls.dram.rank1.pwrStateTime::PRE_PDN            0                       # Time in different power states (Tick)
system.mem_ctrls.dram.rank1.pwrStateTime::ACT     92352750                       # Time in different power states (Tick)
system.mem_ctrls.dram.rank1.pwrStateTime::ACT_PDN            0                       # Time in different power states (Tick)
system.mem_ctrls.power_state.pwrStateResidencyTicks::UNDEFINED    265435000                       # Cumulative time (in ticks) in various power states (Tick)
system.membus.transDist::ReadResp                1927                       # Transaction distribution (Count)
system.membus.transDist::WritebackDirty          1649                       # Transaction distribution (Count)
system.membus.transDist::WritebackClean           214                       # Transaction distribution (Count)
system.membus.transDist::CleanEvict              1168                       # Transaction distribution (Count)
system.membus.transDist::ReadExReq                617                       # Transaction distribution (Count)
system.membus.transDist::ReadExResp               617                       # Transaction distribution (Count)
system.membus.transDist::ReadCleanReq             658                       # Transaction distribution (Count)
system.membus.transDist::ReadSharedReq           1270                       # Transaction distribution (Count)
system.membus.transDist::InvalidateReq           1058                       # Transaction distribution (Count)
system.membus.pktCount_system.cpu.icache.mem_side_port::system.mem_ctrls.port         1529                       # Packet count per connected requestor and responder (Count)
system.membus.pktCount_system.cpu.dcache.mem_side_port::system.mem_ctrls.port         7649                       # Packet count per connected requestor and responder (Count)
system.membus.pktCount::total                    9178                       # Packet count per connected requestor and responder (Count)
system.membus.pktSize_system.cpu.icache.mem_side_port::system.mem_ctrls.port        55744                       # Cumulative packet size per connected requestor and responder (Byte)
system.membus.pktSize_system.cpu.dcache.mem_side_port::system.mem_ctrls.port       226304                       # Cumulative packet size per connected requestor and responder (Byte)
system.membus.pktSize::total                   282048                       # Cumulative packet size per connected requestor and responder (Byte)
system.membus.snoops                                0                       # Total snoops (Count)
system.membus.snoopTraffic                          0                       # Total snoop traffic (Byte)
system.membus.snoopFanout::samples               3603                       # Request fanout histogram (Count)
system.membus.snoopFanout::mean              0.000833                       # Request fanout histogram (Count)
system.membus.snoopFanout::stdev             0.028847                       # Request fanout histogram (Count)
system.membus.snoopFanout::underflows               0      0.00%      0.00% # Request fanout histogram (Count)
system.membus.snoopFanout::0                     3600     99.92%     99.92% # Request fanout histogram (Count)
system.membus.snoopFanout::1                        3      0.08%    100.00% # Request fanout histogram (Count)
system.membus.snoopFanout::2                        0      0.00%    100.00% # Request fanout histogram (Count)
system.membus.snoopFanout::overflows                0      0.00%    100.00% # Request fanout histogram (Count)
system.membus.snoopFanout::min_value                0                       # Request fanout histogram (Count)
system.membus.snoopFanout::max_value                1                       # Request fanout histogram (Count)
system.membus.snoopFanout::total                 3603                       # Request fanout histogram (Count)
system.membus.power_state.pwrStateResidencyTicks::UNDEFINED    265435000                       # Cumulative time (in ticks) in various power states (Tick)
system.membus.reqLayer0.occupancy            14543000                       # Layer occupancy (ticks) (Tick)
system.membus.reqLayer0.utilization               0.1                       # Layer utilization (Ratio)
system.membus.respLayer1.occupancy            3497000                       # Layer occupancy (ticks) (Tick)
system.membus.respLayer1.utilization              0.0                       # Layer utilization (Ratio)
system.membus.respLayer2.occupancy            9965750                       # Layer occupancy (ticks) (Tick)
system.membus.respLayer2.utilization              0.0                       # Layer utilization (Ratio)
system.membus.snoop_filter.totRequests           6634                       # Total number of requests made to the snoop filter. (Count)
system.membus.snoop_filter.hitSingleRequests         3032                       # Number of requests hitting in the snoop filter with a single holder of the requested data. (Count)
system.membus.snoop_filter.hitMultiRequests            2                       # Number of requests hitting in the snoop filter with multiple (>1) holders of the requested data. (Count)
system.membus.snoop_filter.totSnoops                0                       # Total number of snoops made to the snoop filter. (Count)
system.membus.snoop_filter.hitSingleSnoops            0                       # Number of snoops hitting in the snoop filter with a single holder of the requested data. (Count)
system.membus.snoop_filter.hitMultiSnoops            0                       # Number of snoops hitting in the snoop filter with multiple (>1) holders of the requested data. (Count)
system.voltage_domain.voltage                       1                       # Voltage in Volts (Volt)
system.workload.inst.arm                            0                       # number of arm instructions executed (Count)
system.workload.inst.quiesce                        0                       # number of quiesce instructions executed (Count)

---------- End Simulation Statistics   ----------
