
---------- Begin Simulation Statistics ----------
simSeconds                                   0.000049                       # Number of seconds simulated (Second)
simTicks                                     48983000                       # Number of ticks simulated (Tick)
finalTick                                    48983000                       # Number of ticks from beginning of simulation (restored from checkpoints and never reset) (Tick)
simFreq                                  1000000000000                       # The number of ticks per simulated second ((Tick/Second))
hostSeconds                                      0.14                       # Real time elapsed on the host (Second)
hostTickRate                                355844503                       # The number of ticks simulated per host second (ticks/s) ((Tick/Second))
hostMemory                                     671952                       # Number of bytes of host memory used (Byte)
simInsts                                        69764                       # Number of instructions simulated (Count)
simOps                                          77104                       # Number of ops (including micro ops) simulated (Count)
hostInstRate                                   506633                       # Simulator instruction rate (inst/s) ((Count/Second))
hostOpRate                                     559921                       # Simulator op (including micro ops) rate (op/s) ((Count/Second))
system.clk_domain.clock                          1000                       # Clock period in ticks (Tick)
system.cpu.numCycles                            97967                       # Number of cpu cycles simulated (Cycle)
system.cpu.numWorkItemsStarted                      0                       # Number of work items this cpu started (Count)
system.cpu.numWorkItemsCompleted                    0                       # Number of work items this cpu completed (Count)
system.cpu.instsAdded                           96681                       # Number of instructions added to the IQ (excludes non-spec) (Count)
system.cpu.nonSpecInstsAdded                      105                       # Number of non-speculative instructions added to the IQ (Count)
system.cpu.instsIssued                          91459                       # Number of instructions issued (Count)
system.cpu.squashedInstsIssued                    157                       # Number of squashed instructions issued (Count)
system.cpu.squashedInstsExamined                19681                       # Number of squashed instructions iterated over during squash; mainly for profiling (Count)
system.cpu.squashedOperandsExamined             11516                       # Number of squashed operands that are examined and possibly removed from graph (Count)
system.cpu.squashedNonSpecRemoved                  30                       # Number of squashed non-spec instructions that were removed (Count)
system.cpu.numIssuedDist::samples               56603                       # Number of insts issued each cycle (Count)
system.cpu.numIssuedDist::mean               1.615798                       # Number of insts issued each cycle (Count)
system.cpu.numIssuedDist::stdev              2.065411                       # Number of insts issued each cycle (Count)
system.cpu.numIssuedDist::underflows                0      0.00%      0.00% # Number of insts issued each cycle (Count)
system.cpu.numIssuedDist::0                     28018     49.50%     49.50% # Number of insts issued each cycle (Count)
system.cpu.numIssuedDist::1                      6116     10.81%     60.30% # Number of insts issued each cycle (Count)
system.cpu.numIssuedDist::2                      5718     10.10%     70.41% # Number of insts issued each cycle (Count)
system.cpu.numIssuedDist::3                      5557      9.82%     80.22% # Number of insts issued each cycle (Count)
system.cpu.numIssuedDist::4                      4717      8.33%     88.56% # Number of insts issued each cycle (Count)
system.cpu.numIssuedDist::5                      3118      5.51%     94.07% # Number of insts issued each cycle (Count)
system.cpu.numIssuedDist::6                      1625      2.87%     96.94% # Number of insts issued each cycle (Count)
system.cpu.numIssuedDist::7                       844      1.49%     98.43% # Number of insts issued each cycle (Count)
system.cpu.numIssuedDist::8                       890      1.57%    100.00% # Number of insts issued each cycle (Count)
system.cpu.numIssuedDist::overflows                 0      0.00%    100.00% # Number of insts issued each cycle (Count)
system.cpu.numIssuedDist::min_value                 0                       # Number of insts issued each cycle (Count)
system.cpu.numIssuedDist::max_value                 8                       # Number of insts issued each cycle (Count)
system.cpu.numIssuedDist::total                 56603                       # Number of insts issued each cycle (Count)
system.cpu.statFuBusy::No_OpClass                   0      0.00%      0.00% # attempts to use FU when none available (Count)
system.cpu.statFuBusy::IntAlu                     404     31.86%     31.86% # attempts to use FU when none available (Count)
system.cpu.statFuBusy::IntMult                      0      0.00%     31.86% # attempts to use FU when none available (Count)
system.cpu.statFuBusy::IntDiv                       0      0.00%     31.86% # attempts to use FU when none available (Count)
system.cpu.statFuBusy::FloatAdd                     0      0.00%     31.86% # attempts to use FU when none available (Count)
system.cpu.statFuBusy::FloatCmp                     0      0.00%     31.86% # attempts to use FU when none available (Count)
system.cpu.statFuBusy::FloatCvt                     0      0.00%     31.86% # attempts to use FU when none available (Count)
system.cpu.statFuBusy::FloatMult                    0      0.00%     31.86% # attempts to use FU when none available (Count)
system.cpu.statFuBusy::FloatMultAcc                 0      0.00%     31.86% # attempts to use FU when none available (Count)
system.cpu.statFuBusy::FloatDiv                     0      0.00%     31.86% # attempts to use FU when none available (Count)
system.cpu.statFuBusy::FloatMisc                    0      0.00%     31.86% # attempts to use FU when none available (Count)
system.cpu.statFuBusy::FloatSqrt                    0      0.00%     31.86% # attempts to use FU when none available (Count)
system.cpu.statFuBusy::SimdAdd                      0      0.00%     31.86% # attempts to use FU when none available (Count)
system.cpu.statFuBusy::SimdAddAcc                   0      0.00%     31.86% # attempts to use FU when none available (Count)
system.cpu.statFuBusy::SimdAlu                      0      0.00%     31.86% # attempts to use FU when none available (Count)
system.cpu.statFuBusy::SimdCmp                      2      0.16%     32.02% # attempts to use FU when none available (Count)
system.cpu.statFuBusy::SimdCvt                      0      0.00%     32.02% # attempts to use FU when none available (Count)
system.cpu.statFuBusy::SimdMisc                     0      0.00%     32.02% # attempts to use FU when none available (Count)
system.cpu.statFuBusy::SimdMult                     0      0.00%     32.02% # attempts to use FU when none available (Count)
system.cpu.statFuBusy::SimdMultAcc                  0      0.00%     32.02% # attempts to use FU when none available (Count)
system.cpu.statFuBusy::SimdShift                    0      0.00%     32.02% # attempts to use FU when none available (Count)
system.cpu.statFuBusy::SimdShiftAcc                 0      0.00%     32.02% # attempts to use FU when none available (Count)
system.cpu.statFuBusy::SimdDiv                      0      0.00%     32.02% # attempts to use FU when none available (Count)
system.cpu.statFuBusy::SimdSqrt                     0      0.00%     32.02% # attempts to use FU when none available (Count)
system.cpu.statFuBusy::SimdFloatAdd                 0      0.00%     32.02% # attempts to use FU when none available (Count)
system.cpu.statFuBusy::SimdFloatAlu                 0      0.00%     32.02% # attempts to use FU when none available (Count)
system.cpu.statFuBusy::SimdFloatCmp                 0      0.00%     32.02% # attempts to use FU when none available (Count)
system.cpu.statFuBusy::SimdFloatCvt                 0      0.00%     32.02% # attempts to use FU when none available (Count)
system.cpu.statFuBusy::SimdFloatDiv                 0      0.00%     32.02% # attempts to use FU when none available (Count)
system.cpu.statFuBusy::SimdFloatMisc                0      0.00%     32.02% # attempts to use FU when none available (Count)
system.cpu.statFuBusy::SimdFloatMult                0      0.00%     32.02% # attempts to use FU when none available (Count)
system.cpu.statFuBusy::SimdFloatMultAcc             0      0.00%     32.02% # attempts to use FU when none available (Count)
system.cpu.statFuBusy::SimdFloatSqrt                0      0.00%     32.02% # attempts to use FU when none available (Count)
system.cpu.statFuBusy::SimdReduceAdd                0      0.00%     32.02% # attempts to use FU when none available (Count)
system.cpu.statFuBusy::SimdReduceAlu                0      0.00%     32.02% # attempts to use FU when none available (Count)
system.cpu.statFuBusy::SimdReduceCmp                0      0.00%     32.02% # attempts to use FU when none available (Count)
system.cpu.statFuBusy::SimdFloatReduceAdd            0      0.00%     32.02% # attempts to use FU when none available (Count)
system.cpu.statFuBusy::SimdFloatReduceCmp            0      0.00%     32.02% # attempts to use FU when none available (Count)
system.cpu.statFuBusy::SimdAes                      0      0.00%     32.02% # attempts to use FU when none available (Count)
system.cpu.statFuBusy::SimdAesMix                   0      0.00%     32.02% # attempts to use FU when none available (Count)
system.cpu.statFuBusy::SimdSha1Hash                 0      0.00%     32.02% # attempts to use FU when none available (Count)
system.cpu.statFuBusy::SimdSha1Hash2                0      0.00%     32.02% # attempts to use FU when none available (Count)
system.cpu.statFuBusy::SimdSha256Hash               0      0.00%     32.02% # attempts to use FU when none available (Count)
system.cpu.statFuBusy::SimdSha256Hash2              0      0.00%     32.02% # attempts to use FU when none available (Count)
system.cpu.statFuBusy::SimdShaSigma2                0      0.00%     32.02% # attempts to use FU when none available (Count)
system.cpu.statFuBusy::SimdShaSigma3                0      0.00%     32.02% # attempts to use FU when none available (Count)
system.cpu.statFuBusy::SimdPredAlu                  0      0.00%     32.02% # attempts to use FU when none available (Count)
system.cpu.statFuBusy::MemRead                    378     29.81%     61.83% # attempts to use FU when none available (Count)
system.cpu.statFuBusy::MemWrite                   484     38.17%    100.00% # attempts to use FU when none available (Count)
system.cpu.statFuBusy::FloatMemRead                 0      0.00%    100.00% # attempts to use FU when none available (Count)
system.cpu.statFuBusy::FloatMemWrite                0      0.00%    100.00% # attempts to use FU when none available (Count)
system.cpu.statFuBusy::IprAccess                    0      0.00%    100.00% # attempts to use FU when none available (Count)
system.cpu.statFuBusy::InstPrefetch                 0      0.00%    100.00% # attempts to use FU when none available (Count)
system.cpu.statIssuedInstType_0::No_OpClass          130      0.14%      0.14% # Number of instructions issued per FU type, per thread (Count)
system.cpu.statIssuedInstType_0::IntAlu         60560     66.22%     66.36% # Number of instructions issued per FU type, per thread (Count)
system.cpu.statIssuedInstType_0::IntMult          216      0.24%     66.59% # Number of instructions issued per FU type, per thread (Count)
system.cpu.statIssuedInstType_0::IntDiv             3      0.00%     66.60% # Number of instructions issued per FU type, per thread (Count)
system.cpu.statIssuedInstType_0::FloatAdd            0      0.00%     66.60% # Number of instructions issued per FU type, per thread (Count)
system.cpu.statIssuedInstType_0::FloatCmp            0      0.00%     66.60% # Number of instructions issued per FU type, per thread (Count)
system.cpu.statIssuedInstType_0::FloatCvt            0      0.00%     66.60% # Number of instructions issued per FU type, per thread (Count)
system.cpu.statIssuedInstType_0::FloatMult            0      0.00%     66.60% # Number of instructions issued per FU type, per thread (Count)
system.cpu.statIssuedInstType_0::FloatMultAcc            0      0.00%     66.60% # Number of instructions issued per FU type, per thread (Count)
system.cpu.statIssuedInstType_0::FloatDiv            0      0.00%     66.60% # Number of instructions issued per FU type, per thread (Count)
system.cpu.statIssuedInstType_0::FloatMisc            0      0.00%     66.60% # Number of instructions issued per FU type, per thread (Count)
system.cpu.statIssuedInstType_0::FloatSqrt            0      0.00%     66.60% # Number of instructions issued per FU type, per thread (Count)
system.cpu.statIssuedInstType_0::SimdAdd          240      0.26%     66.86% # Number of instructions issued per FU type, per thread (Count)
system.cpu.statIssuedInstType_0::SimdAddAcc            0      0.00%     66.86% # Number of instructions issued per FU type, per thread (Count)
system.cpu.statIssuedInstType_0::SimdAlu          457      0.50%     67.36% # Number of instructions issued per FU type, per thread (Count)
system.cpu.statIssuedInstType_0::SimdCmp          448      0.49%     67.85% # Number of instructions issued per FU type, per thread (Count)
system.cpu.statIssuedInstType_0::SimdCvt            0      0.00%     67.85% # Number of instructions issued per FU type, per thread (Count)
system.cpu.statIssuedInstType_0::SimdMisc          337      0.37%     68.22% # Number of instructions issued per FU type, per thread (Count)
system.cpu.statIssuedInstType_0::SimdMult            0      0.00%     68.22% # Number of instructions issued per FU type, per thread (Count)
system.cpu.statIssuedInstType_0::SimdMultAcc            0      0.00%     68.22% # Number of instructions issued per FU type, per thread (Count)
system.cpu.statIssuedInstType_0::SimdShift            0      0.00%     68.22% # Number of instructions issued per FU type, per thread (Count)
system.cpu.statIssuedInstType_0::SimdShiftAcc            0      0.00%     68.22% # Number of instructions issued per FU type, per thread (Count)
system.cpu.statIssuedInstType_0::SimdDiv            0      0.00%     68.22% # Number of instructions issued per FU type, per thread (Count)
system.cpu.statIssuedInstType_0::SimdSqrt            0      0.00%     68.22% # Number of instructions issued per FU type, per thread (Count)
system.cpu.statIssuedInstType_0::SimdFloatAdd            0      0.00%     68.22% # Number of instructions issued per FU type, per thread (Count)
system.cpu.statIssuedInstType_0::SimdFloatAlu            0      0.00%     68.22% # Number of instructions issued per FU type, per thread (Count)
system.cpu.statIssuedInstType_0::SimdFloatCmp            0      0.00%     68.22% # Number of instructions issued per FU type, per thread (Count)
system.cpu.statIssuedInstType_0::SimdFloatCvt            0      0.00%     68.22% # Number of instructions issued per FU type, per thread (Count)
system.cpu.statIssuedInstType_0::SimdFloatDiv            0      0.00%     68.22% # Number of instructions issued per FU type, per thread (Count)
system.cpu.statIssuedInstType_0::SimdFloatMisc            0      0.00%     68.22% # Number of instructions issued per FU type, per thread (Count)
system.cpu.statIssuedInstType_0::SimdFloatMult            0      0.00%     68.22% # Number of instructions issued per FU type, per thread (Count)
system.cpu.statIssuedInstType_0::SimdFloatMultAcc            0      0.00%     68.22% # Number of instructions issued per FU type, per thread (Count)
system.cpu.statIssuedInstType_0::SimdFloatSqrt            0      0.00%     68.22% # Number of instructions issued per FU type, per thread (Count)
system.cpu.statIssuedInstType_0::SimdReduceAdd            0      0.00%     68.22% # Number of instructions issued per FU type, per thread (Count)
system.cpu.statIssuedInstType_0::SimdReduceAlu            0      0.00%     68.22% # Number of instructions issued per FU type, per thread (Count)
system.cpu.statIssuedInstType_0::SimdReduceCmp            0      0.00%     68.22% # Number of instructions issued per FU type, per thread (Count)
system.cpu.statIssuedInstType_0::SimdFloatReduceAdd            0      0.00%     68.22% # Number of instructions issued per FU type, per thread (Count)
system.cpu.statIssuedInstType_0::SimdFloatReduceCmp            0      0.00%     68.22% # Number of instructions issued per FU type, per thread (Count)
system.cpu.statIssuedInstType_0::SimdAes            0      0.00%     68.22% # Number of instructions issued per FU type, per thread (Count)
system.cpu.statIssuedInstType_0::SimdAesMix            0      0.00%     68.22% # Number of instructions issued per FU type, per thread (Count)
system.cpu.statIssuedInstType_0::SimdSha1Hash            0      0.00%     68.22% # Number of instructions issued per FU type, per thread (Count)
system.cpu.statIssuedInstType_0::SimdSha1Hash2            0      0.00%     68.22% # Number of instructions issued per FU type, per thread (Count)
system.cpu.statIssuedInstType_0::SimdSha256Hash            0      0.00%     68.22% # Number of instructions issued per FU type, per thread (Count)
system.cpu.statIssuedInstType_0::SimdSha256Hash2            0      0.00%     68.22% # Number of instructions issued per FU type, per thread (Count)
system.cpu.statIssuedInstType_0::SimdShaSigma2            0      0.00%     68.22% # Number of instructions issued per FU type, per thread (Count)
system.cpu.statIssuedInstType_0::SimdShaSigma3            0      0.00%     68.22% # Number of instructions issued per FU type, per thread (Count)
system.cpu.statIssuedInstType_0::SimdPredAlu            0      0.00%     68.22% # Number of instructions issued per FU type, per thread (Count)
system.cpu.statIssuedInstType_0::MemRead        18693     20.44%     88.66% # Number of instructions issued per FU type, per thread (Count)
system.cpu.statIssuedInstType_0::MemWrite        10375     11.34%    100.00% # Number of instructions issued per FU type, per thread (Count)
system.cpu.statIssuedInstType_0::FloatMemRead            0      0.00%    100.00% # Number of instructions issued per FU type, per thread (Count)
system.cpu.statIssuedInstType_0::FloatMemWrite            0      0.00%    100.00% # Number of instructions issued per FU type, per thread (Count)
system.cpu.statIssuedInstType_0::IprAccess            0      0.00%    100.00% # Number of instructions issued per FU type, per thread (Count)
system.cpu.statIssuedInstType_0::InstPrefetch            0      0.00%    100.00% # Number of instructions issued per FU type, per thread (Count)
system.cpu.statIssuedInstType_0::total          91459                       # Number of instructions issued per FU type, per thread (Count)
system.cpu.issueRate                         0.933569                       # Inst issue rate ((Count/Cycle))
system.cpu.fuBusy                                1268                       # FU busy when requested (Count)
system.cpu.fuBusyRate                        0.013864                       # FU busy rate (busy events/executed inst) ((Count/Count))
system.cpu.intInstQueueReads                   236430                       # Number of integer instruction queue reads (Count)
system.cpu.intInstQueueWrites                  114141                       # Number of integer instruction queue writes (Count)
system.cpu.intInstQueueWakeupAccesses           85973                       # Number of integer instruction queue wakeup accesses (Count)
system.cpu.fpInstQueueReads                         0                       # Number of floating instruction queue reads (Count)
system.cpu.fpInstQueueWrites                        0                       # Number of floating instruction queue writes (Count)
system.cpu.fpInstQueueWakeupAccesses                0                       # Number of floating instruction queue wakeup accesses (Count)
system.cpu.vecInstQueueReads                     4516                       # Number of vector instruction queue reads (Count)
system.cpu.vecInstQueueWrites                    2478                       # Number of vector instruction queue writes (Count)
system.cpu.vecInstQueueWakeupAccesses            2177                       # Number of vector instruction queue wakeup accesses (Count)
system.cpu.intAluAccesses                       90421                       # Number of integer alu accesses (Count)
system.cpu.fpAluAccesses                            0                       # Number of floating point alu accesses (Count)
system.cpu.vecAluAccesses                        2176                       # Number of vector alu accesses (Count)
system.cpu.numInsts                             89985                       # Number of executed instructions (Count)
system.cpu.numLoadInsts                         18313                       # Number of load instructions executed (Count)
system.cpu.numSquashedInsts                      1474                       # Number of squashed instructions skipped in execute (Count)
system.cpu.numSwp                                   0                       # Number of swp insts executed (Count)
system.cpu.numNop                                 323                       # Number of nop insts executed (Count)
system.cpu.numRefs                              28446                       # Number of memory reference insts executed (Count)
system.cpu.numBranches                          11315                       # Number of branches executed (Count)
system.cpu.numStoreInsts                        10133                       # Number of stores executed (Count)
system.cpu.numRate                           0.918524                       # Inst execution rate ((Count/Cycle))
system.cpu.timesIdled                             485                       # Number of times that the entire CPU went into an idle state and unscheduled itself (Count)
system.cpu.idleCycles                           41364                       # Total number of cycles that the CPU has spent unscheduled due to idling (Cycle)
system.cpu.committedInsts                       69764                       # Number of Instructions Simulated (Count)
system.cpu.committedOps                         77104                       # Number of Ops (including micro ops) Simulated (Count)
system.cpu.cpi                               1.404263                       # CPI: Cycles Per Instruction ((Cycle/Count))
system.cpu.totalCpi                          1.404263                       # CPI: Total CPI of All Threads ((Cycle/Count))
system.cpu.ipc                               0.712117                       # IPC: Instructions Per Cycle ((Count/Cycle))
system.cpu.totalIpc                          0.712117                       # IPC: Total IPC of All Threads ((Count/Cycle))
system.cpu.intRegfileReads                     101884                       # Number of integer regfile reads (Count)
system.cpu.intRegfileWrites                     68181                       # Number of integer regfile writes (Count)
system.cpu.vecRegfileReads                       2887                       # number of vector regfile reads (Count)
system.cpu.vecRegfileWrites                      1807                       # number of vector regfile writes (Count)
system.cpu.ccRegfileReads                       18264                       # number of cc regfile reads (Count)
system.cpu.ccRegfileWrites                      17481                       # number of cc regfile writes (Count)
system.cpu.miscRegfileReads                    166863                       # number of misc regfile reads (Count)
system.cpu.miscRegfileWrites                       45                       # number of misc regfile writes (Count)
system.cpu.MemDepUnit__0.insertedLoads          19166                       # Number of loads inserted to the mem dependence unit. (Count)
system.cpu.MemDepUnit__0.insertedStores         11204                       # Number of stores inserted to the mem dependence unit. (Count)
system.cpu.MemDepUnit__0.conflictingLoads         2757                       # Number of conflicting loads. (Count)
system.cpu.MemDepUnit__0.conflictingStores         1045                       # Number of conflicting stores. (Count)
system.cpu.MemDepUnit__1.insertedLoads              0                       # Number of loads inserted to the mem dependence unit. (Count)
system.cpu.MemDepUnit__1.insertedStores             0                       # Number of stores inserted to the mem dependence unit. (Count)
system.cpu.MemDepUnit__1.conflictingLoads            0                       # Number of conflicting loads. (Count)
system.cpu.MemDepUnit__1.conflictingStores            0                       # Number of conflicting stores. (Count)
system.cpu.MemDepUnit__2.insertedLoads              0                       # Number of loads inserted to the mem dependence unit. (Count)
system.cpu.MemDepUnit__2.insertedStores             0                       # Number of stores inserted to the mem dependence unit. (Count)
system.cpu.MemDepUnit__2.conflictingLoads            0                       # Number of conflicting loads. (Count)
system.cpu.MemDepUnit__2.conflictingStores            0                       # Number of conflicting stores. (Count)
system.cpu.MemDepUnit__3.insertedLoads              0                       # Number of loads inserted to the mem dependence unit. (Count)
system.cpu.MemDepUnit__3.insertedStores             0                       # Number of stores inserted to the mem dependence unit. (Count)
system.cpu.MemDepUnit__3.conflictingLoads            0                       # Number of conflicting loads. (Count)
system.cpu.MemDepUnit__3.conflictingStores            0                       # Number of conflicting stores. (Count)
system.cpu.branchPred.lookups                   14917                       # Number of BP lookups (Count)
system.cpu.branchPred.condPredicted              9978                       # Number of conditional branches predicted (Count)
system.cpu.branchPred.condIncorrect              1244                       # Number of conditional branches incorrect (Count)
system.cpu.branchPred.BTBLookups                 7274                       # Number of BTB lookups (Count)
system.cpu.branchPred.BTBHits                    5951                       # Number of BTB hits (Count)
system.cpu.branchPred.BTBHitRatio            0.818119                       # BTB Hit Ratio (Ratio)
system.cpu.branchPred.RASUsed                    1708                       # Number of times the RAS was used to get a target. (Count)
system.cpu.branchPred.RASIncorrect                  1                       # Number of incorrect RAS predictions. (Count)
system.cpu.branchPred.indirectLookups             341                       # Number of indirect predictor lookups. (Count)
system.cpu.branchPred.indirectHits                121                       # Number of indirect target hits. (Count)
system.cpu.branchPred.indirectMisses              220                       # Number of indirect misses. (Count)
system.cpu.branchPred.indirectMispredicted           72                       # Number of mispredicted indirect branches. (Count)
system.cpu.commit.commitSquashedInsts           19737                       # The number of squashed insts skipped by commit (Count)
system.cpu.commit.commitNonSpecStalls              75                       # The number of times commit has been forced to stall to communicate backwards (Count)
system.cpu.commit.branchMispredicts               897                       # The number of times a branch was mispredicted (Count)
system.cpu.commit.numCommittedDist::samples        53355                       # Number of insts commited each cycle (Count)
system.cpu.commit.numCommittedDist::mean     1.449330                       # Number of insts commited each cycle (Count)
system.cpu.commit.numCommittedDist::stdev     2.406608                       # Number of insts commited each cycle (Count)
system.cpu.commit.numCommittedDist::underflows            0      0.00%      0.00% # Number of insts commited each cycle (Count)
system.cpu.commit.numCommittedDist::0           30637     57.42%     57.42% # Number of insts commited each cycle (Count)
system.cpu.commit.numCommittedDist::1            8592     16.10%     73.52% # Number of insts commited each cycle (Count)
system.cpu.commit.numCommittedDist::2            3508      6.57%     80.10% # Number of insts commited each cycle (Count)
system.cpu.commit.numCommittedDist::3            1675      3.14%     83.24% # Number of insts commited each cycle (Count)
system.cpu.commit.numCommittedDist::4            1921      3.60%     86.84% # Number of insts commited each cycle (Count)
system.cpu.commit.numCommittedDist::5            1390      2.61%     89.44% # Number of insts commited each cycle (Count)
system.cpu.commit.numCommittedDist::6            1183      2.22%     91.66% # Number of insts commited each cycle (Count)
system.cpu.commit.numCommittedDist::7             628      1.18%     92.84% # Number of insts commited each cycle (Count)
system.cpu.commit.numCommittedDist::8            3821      7.16%    100.00% # Number of insts commited each cycle (Count)
system.cpu.commit.numCommittedDist::overflows            0      0.00%    100.00% # Number of insts commited each cycle (Count)
system.cpu.commit.numCommittedDist::min_value            0                       # Number of insts commited each cycle (Count)
system.cpu.commit.numCommittedDist::max_value            8                       # Number of insts commited each cycle (Count)
system.cpu.commit.numCommittedDist::total        53355                       # Number of insts commited each cycle (Count)
system.cpu.commit.instsCommitted                69989                       # Number of instructions committed (Count)
system.cpu.commit.opsCommitted                  77329                       # Number of ops (including micro ops) committed (Count)
system.cpu.commit.memRefs                       24400                       # Number of memory references committed (Count)
system.cpu.commit.loads                         15237                       # Number of loads committed (Count)
system.cpu.commit.amos                             14                       # Number of atomic instructions committed (Count)
system.cpu.commit.membars                          18                       # Number of memory barriers committed (Count)
system.cpu.commit.branches                       9758                       # Number of branches committed (Count)
system.cpu.commit.vectorInstructions             2082                       # Number of committed Vector instructions. (Count)
system.cpu.commit.floating                          0                       # Number of committed floating point instructions. (Count)
system.cpu.commit.integer                       70686                       # Number of committed integer instructions. (Count)
system.cpu.commit.functionCalls                  1108                       # Number of function calls committed. (Count)
system.cpu.commit.committedInstType_0::No_OpClass          125      0.16%      0.16% # Class of committed instruction (Count)
system.cpu.commit.committedInstType_0::IntAlu        51191     66.20%     66.36% # Class of committed instruction (Count)
system.cpu.commit.committedInstType_0::IntMult          197      0.25%     66.62% # Class of committed instruction (Count)
system.cpu.commit.committedInstType_0::IntDiv            3      0.00%     66.62% # Class of committed instruction (Count)
system.cpu.commit.committedInstType_0::FloatAdd            0      0.00%     66.62% # Class of committed instruction (Count)
system.cpu.commit.committedInstType_0::FloatCmp            0      0.00%     66.62% # Class of committed instruction (Count)
system.cpu.commit.committedInstType_0::FloatCvt            0      0.00%     66.62% # Class of committed instruction (Count)
system.cpu.commit.committedInstType_0::FloatMult            0      0.00%     66.62% # Class of committed instruction (Count)
system.cpu.commit.committedInstType_0::FloatMultAcc            0      0.00%     66.62% # Class of committed instruction (Count)
system.cpu.commit.committedInstType_0::FloatDiv            0      0.00%     66.62% # Class of committed instruction (Count)
system.cpu.commit.committedInstType_0::FloatMisc            0      0.00%     66.62% # Class of committed instruction (Count)
system.cpu.commit.committedInstType_0::FloatSqrt            0      0.00%     66.62% # Class of committed instruction (Count)
system.cpu.commit.committedInstType_0::SimdAdd          228      0.29%     66.91% # Class of committed instruction (Count)
system.cpu.commit.committedInstType_0::SimdAddAcc            0      0.00%     66.91% # Class of committed instruction (Count)
system.cpu.commit.committedInstType_0::SimdAlu          435      0.56%     67.48% # Class of committed instruction (Count)
system.cpu.commit.committedInstType_0::SimdCmp          428      0.55%     68.03% # Class of committed instruction (Count)
system.cpu.commit.committedInstType_0::SimdCvt            0      0.00%     68.03% # Class of committed instruction (Count)
system.cpu.commit.committedInstType_0::SimdMisc          322      0.42%     68.45% # Class of committed instruction (Count)
system.cpu.commit.committedInstType_0::SimdMult            0      0.00%     68.45% # Class of committed instruction (Count)
system.cpu.commit.committedInstType_0::SimdMultAcc            0      0.00%     68.45% # Class of committed instruction (Count)
system.cpu.commit.committedInstType_0::SimdShift            0      0.00%     68.45% # Class of committed instruction (Count)
system.cpu.commit.committedInstType_0::SimdShiftAcc            0      0.00%     68.45% # Class of committed instruction (Count)
system.cpu.commit.committedInstType_0::SimdDiv            0      0.00%     68.45% # Class of committed instruction (Count)
system.cpu.commit.committedInstType_0::SimdSqrt            0      0.00%     68.45% # Class of committed instruction (Count)
system.cpu.commit.committedInstType_0::SimdFloatAdd            0      0.00%     68.45% # Class of committed instruction (Count)
system.cpu.commit.committedInstType_0::SimdFloatAlu            0      0.00%     68.45% # Class of committed instruction (Count)
system.cpu.commit.committedInstType_0::SimdFloatCmp            0      0.00%     68.45% # Class of committed instruction (Count)
system.cpu.commit.committedInstType_0::SimdFloatCvt            0      0.00%     68.45% # Class of committed instruction (Count)
system.cpu.commit.committedInstType_0::SimdFloatDiv            0      0.00%     68.45% # Class of committed instruction (Count)
system.cpu.commit.committedInstType_0::SimdFloatMisc            0      0.00%     68.45% # Class of committed instruction (Count)
system.cpu.commit.committedInstType_0::SimdFloatMult            0      0.00%     68.45% # Class of committed instruction (Count)
system.cpu.commit.committedInstType_0::SimdFloatMultAcc            0      0.00%     68.45% # Class of committed instruction (Count)
system.cpu.commit.committedInstType_0::SimdFloatSqrt            0      0.00%     68.45% # Class of committed instruction (Count)
system.cpu.commit.committedInstType_0::SimdReduceAdd            0      0.00%     68.45% # Class of committed instruction (Count)
system.cpu.commit.committedInstType_0::SimdReduceAlu            0      0.00%     68.45% # Class of committed instruction (Count)
system.cpu.commit.committedInstType_0::SimdReduceCmp            0      0.00%     68.45% # Class of committed instruction (Count)
system.cpu.commit.committedInstType_0::SimdFloatReduceAdd            0      0.00%     68.45% # Class of committed instruction (Count)
system.cpu.commit.committedInstType_0::SimdFloatReduceCmp            0      0.00%     68.45% # Class of committed instruction (Count)
system.cpu.commit.committedInstType_0::SimdAes            0      0.00%     68.45% # Class of committed instruction (Count)
system.cpu.commit.committedInstType_0::SimdAesMix            0      0.00%     68.45% # Class of committed instruction (Count)
system.cpu.commit.committedInstType_0::SimdSha1Hash            0      0.00%     68.45% # Class of committed instruction (Count)
system.cpu.commit.committedInstType_0::SimdSha1Hash2            0      0.00%     68.45% # Class of committed instruction (Count)
system.cpu.commit.committedInstType_0::SimdSha256Hash            0      0.00%     68.45% # Class of committed instruction (Count)
system.cpu.commit.committedInstType_0::SimdSha256Hash2            0      0.00%     68.45% # Class of committed instruction (Count)
system.cpu.commit.committedInstType_0::SimdShaSigma2            0      0.00%     68.45% # Class of committed instruction (Count)
system.cpu.commit.committedInstType_0::SimdShaSigma3            0      0.00%     68.45% # Class of committed instruction (Count)
system.cpu.commit.committedInstType_0::SimdPredAlu            0      0.00%     68.45% # Class of committed instruction (Count)
system.cpu.commit.committedInstType_0::MemRead        15237     19.70%     88.15% # Class of committed instruction (Count)
system.cpu.commit.committedInstType_0::MemWrite         9163     11.85%    100.00% # Class of committed instruction (Count)
system.cpu.commit.committedInstType_0::FloatMemRead            0      0.00%    100.00% # Class of committed instruction (Count)
system.cpu.commit.committedInstType_0::FloatMemWrite            0      0.00%    100.00% # Class of committed instruction (Count)
system.cpu.commit.committedInstType_0::IprAccess            0      0.00%    100.00% # Class of committed instruction (Count)
system.cpu.commit.committedInstType_0::InstPrefetch            0      0.00%    100.00% # Class of committed instruction (Count)
system.cpu.commit.committedInstType_0::total        77329                       # Class of committed instruction (Count)
system.cpu.commit.commitEligibleSamples          3821                       # number cycles where commit BW limit reached (Cycle)
system.cpu.dcache.demandHits::cpu.data          23854                       # number of demand (read+write) hits (Count)
system.cpu.dcache.demandHits::total             23854                       # number of demand (read+write) hits (Count)
system.cpu.dcache.overallHits::cpu.data         23856                       # number of overall hits (Count)
system.cpu.dcache.overallHits::total            23856                       # number of overall hits (Count)
system.cpu.dcache.demandMisses::cpu.data          937                       # number of demand (read+write) misses (Count)
system.cpu.dcache.demandMisses::total             937                       # number of demand (read+write) misses (Count)
system.cpu.dcache.overallMisses::cpu.data          941                       # number of overall misses (Count)
system.cpu.dcache.overallMisses::total            941                       # number of overall misses (Count)
system.cpu.dcache.demandMissLatency::cpu.data     54014974                       # number of demand (read+write) miss ticks (Tick)
system.cpu.dcache.demandMissLatency::total     54014974                       # number of demand (read+write) miss ticks (Tick)
system.cpu.dcache.overallMissLatency::cpu.data     54014974                       # number of overall miss ticks (Tick)
system.cpu.dcache.overallMissLatency::total     54014974                       # number of overall miss ticks (Tick)
system.cpu.dcache.demandAccesses::cpu.data        24791                       # number of demand (read+write) accesses (Count)
system.cpu.dcache.demandAccesses::total         24791                       # number of demand (read+write) accesses (Count)
system.cpu.dcache.overallAccesses::cpu.data        24797                       # number of overall (read+write) accesses (Count)
system.cpu.dcache.overallAccesses::total        24797                       # number of overall (read+write) accesses (Count)
system.cpu.dcache.demandMissRate::cpu.data     0.037796                       # miss rate for demand accesses (Ratio)
system.cpu.dcache.demandMissRate::total      0.037796                       # miss rate for demand accesses (Ratio)
system.cpu.dcache.overallMissRate::cpu.data     0.037948                       # miss rate for overall accesses (Ratio)
system.cpu.dcache.overallMissRate::total     0.037948                       # miss rate for overall accesses (Ratio)
system.cpu.dcache.demandAvgMissLatency::cpu.data 57646.717182                       # average overall miss latency ((Cycle/Count))
system.cpu.dcache.demandAvgMissLatency::total 57646.717182                       # average overall miss latency ((Cycle/Count))
system.cpu.dcache.overallAvgMissLatency::cpu.data 57401.672689                       # average overall miss latency ((Cycle/Count))
system.cpu.dcache.overallAvgMissLatency::total 57401.672689                       # average overall miss latency ((Cycle/Count))
system.cpu.dcache.blockedCycles::no_mshrs         1464                       # number of cycles access was blocked (Cycle)
system.cpu.dcache.blockedCycles::no_targets            0                       # number of cycles access was blocked (Cycle)
system.cpu.dcache.blockedCauses::no_mshrs           52                       # number of times access was blocked (Count)
system.cpu.dcache.blockedCauses::no_targets            0                       # number of times access was blocked (Count)
system.cpu.dcache.avgBlocked::no_mshrs      28.153846                       # average number of cycles each access was blocked ((Cycle/Count))
system.cpu.dcache.avgBlocked::no_targets          nan                       # average number of cycles each access was blocked ((Cycle/Count))
system.cpu.dcache.writebacks::writebacks          104                       # number of writebacks (Count)
system.cpu.dcache.writebacks::total               104                       # number of writebacks (Count)
system.cpu.dcache.demandMshrHits::cpu.data          608                       # number of demand (read+write) MSHR hits (Count)
system.cpu.dcache.demandMshrHits::total           608                       # number of demand (read+write) MSHR hits (Count)
system.cpu.dcache.overallMshrHits::cpu.data          608                       # number of overall MSHR hits (Count)
system.cpu.dcache.overallMshrHits::total          608                       # number of overall MSHR hits (Count)
system.cpu.dcache.demandMshrMisses::cpu.data          329                       # number of demand (read+write) MSHR misses (Count)
system.cpu.dcache.demandMshrMisses::total          329                       # number of demand (read+write) MSHR misses (Count)
system.cpu.dcache.overallMshrMisses::cpu.data          333                       # number of overall MSHR misses (Count)
system.cpu.dcache.overallMshrMisses::total          333                       # number of overall MSHR misses (Count)
system.cpu.dcache.demandMshrMissLatency::cpu.data     21194996                       # number of demand (read+write) MSHR miss ticks (Tick)
system.cpu.dcache.demandMshrMissLatency::total     21194996                       # number of demand (read+write) MSHR miss ticks (Tick)
system.cpu.dcache.overallMshrMissLatency::cpu.data     21479996                       # number of overall MSHR miss ticks (Tick)
system.cpu.dcache.overallMshrMissLatency::total     21479996                       # number of overall MSHR miss ticks (Tick)
system.cpu.dcache.demandMshrMissRate::cpu.data     0.013271                       # mshr miss ratio for demand accesses (Ratio)
system.cpu.dcache.demandMshrMissRate::total     0.013271                       # mshr miss ratio for demand accesses (Ratio)
system.cpu.dcache.overallMshrMissRate::cpu.data     0.013429                       # mshr miss ratio for overall accesses (Ratio)
system.cpu.dcache.overallMshrMissRate::total     0.013429                       # mshr miss ratio for overall accesses (Ratio)
system.cpu.dcache.demandAvgMshrMissLatency::cpu.data 64422.480243                       # average overall mshr miss latency ((Cycle/Count))
system.cpu.dcache.demandAvgMshrMissLatency::total 64422.480243                       # average overall mshr miss latency ((Cycle/Count))
system.cpu.dcache.overallAvgMshrMissLatency::cpu.data 64504.492492                       # average overall mshr miss latency ((Cycle/Count))
system.cpu.dcache.overallAvgMshrMissLatency::total 64504.492492                       # average overall mshr miss latency ((Cycle/Count))
system.cpu.dcache.replacements                    208                       # number of replacements (Count)
system.cpu.dcache.LoadLockedReq.hits::cpu.data            5                       # number of LoadLockedReq hits (Count)
system.cpu.dcache.LoadLockedReq.hits::total            5                       # number of LoadLockedReq hits (Count)
system.cpu.dcache.LoadLockedReq.misses::cpu.data            1                       # number of LoadLockedReq misses (Count)
system.cpu.dcache.LoadLockedReq.misses::total            1                       # number of LoadLockedReq misses (Count)
system.cpu.dcache.LoadLockedReq.missLatency::cpu.data        51500                       # number of LoadLockedReq miss ticks (Tick)
system.cpu.dcache.LoadLockedReq.missLatency::total        51500                       # number of LoadLockedReq miss ticks (Tick)
system.cpu.dcache.LoadLockedReq.accesses::cpu.data            6                       # number of LoadLockedReq accesses(hits+misses) (Count)
system.cpu.dcache.LoadLockedReq.accesses::total            6                       # number of LoadLockedReq accesses(hits+misses) (Count)
system.cpu.dcache.LoadLockedReq.missRate::cpu.data     0.166667                       # miss rate for LoadLockedReq accesses (Ratio)
system.cpu.dcache.LoadLockedReq.missRate::total     0.166667                       # miss rate for LoadLockedReq accesses (Ratio)
system.cpu.dcache.LoadLockedReq.avgMissLatency::cpu.data        51500                       # average LoadLockedReq miss latency ((Tick/Count))
system.cpu.dcache.LoadLockedReq.avgMissLatency::total        51500                       # average LoadLockedReq miss latency ((Tick/Count))
system.cpu.dcache.LoadLockedReq.mshrMisses::cpu.data            1                       # number of LoadLockedReq MSHR misses (Count)
system.cpu.dcache.LoadLockedReq.mshrMisses::total            1                       # number of LoadLockedReq MSHR misses (Count)
system.cpu.dcache.LoadLockedReq.mshrMissLatency::cpu.data        50500                       # number of LoadLockedReq MSHR miss ticks (Tick)
system.cpu.dcache.LoadLockedReq.mshrMissLatency::total        50500                       # number of LoadLockedReq MSHR miss ticks (Tick)
system.cpu.dcache.LoadLockedReq.mshrMissRate::cpu.data     0.166667                       # mshr miss rate for LoadLockedReq accesses (Ratio)
system.cpu.dcache.LoadLockedReq.mshrMissRate::total     0.166667                       # mshr miss rate for LoadLockedReq accesses (Ratio)
system.cpu.dcache.LoadLockedReq.avgMshrMissLatency::cpu.data        50500                       # average LoadLockedReq mshr miss latency ((Tick/Count))
system.cpu.dcache.LoadLockedReq.avgMshrMissLatency::total        50500                       # average LoadLockedReq mshr miss latency ((Tick/Count))
system.cpu.dcache.ReadReq.hits::cpu.data        15321                       # number of ReadReq hits (Count)
system.cpu.dcache.ReadReq.hits::total           15321                       # number of ReadReq hits (Count)
system.cpu.dcache.ReadReq.misses::cpu.data          325                       # number of ReadReq misses (Count)
system.cpu.dcache.ReadReq.misses::total           325                       # number of ReadReq misses (Count)
system.cpu.dcache.ReadReq.missLatency::cpu.data     21593500                       # number of ReadReq miss ticks (Tick)
system.cpu.dcache.ReadReq.missLatency::total     21593500                       # number of ReadReq miss ticks (Tick)
system.cpu.dcache.ReadReq.accesses::cpu.data        15646                       # number of ReadReq accesses(hits+misses) (Count)
system.cpu.dcache.ReadReq.accesses::total        15646                       # number of ReadReq accesses(hits+misses) (Count)
system.cpu.dcache.ReadReq.missRate::cpu.data     0.020772                       # miss rate for ReadReq accesses (Ratio)
system.cpu.dcache.ReadReq.missRate::total     0.020772                       # miss rate for ReadReq accesses (Ratio)
system.cpu.dcache.ReadReq.avgMissLatency::cpu.data 66441.538462                       # average ReadReq miss latency ((Tick/Count))
system.cpu.dcache.ReadReq.avgMissLatency::total 66441.538462                       # average ReadReq miss latency ((Tick/Count))
system.cpu.dcache.ReadReq.mshrHits::cpu.data          133                       # number of ReadReq MSHR hits (Count)
system.cpu.dcache.ReadReq.mshrHits::total          133                       # number of ReadReq MSHR hits (Count)
system.cpu.dcache.ReadReq.mshrMisses::cpu.data          192                       # number of ReadReq MSHR misses (Count)
system.cpu.dcache.ReadReq.mshrMisses::total          192                       # number of ReadReq MSHR misses (Count)
system.cpu.dcache.ReadReq.mshrMissLatency::cpu.data     13178500                       # number of ReadReq MSHR miss ticks (Tick)
system.cpu.dcache.ReadReq.mshrMissLatency::total     13178500                       # number of ReadReq MSHR miss ticks (Tick)
system.cpu.dcache.ReadReq.mshrMissRate::cpu.data     0.012272                       # mshr miss rate for ReadReq accesses (Ratio)
system.cpu.dcache.ReadReq.mshrMissRate::total     0.012272                       # mshr miss rate for ReadReq accesses (Ratio)
system.cpu.dcache.ReadReq.avgMshrMissLatency::cpu.data 68638.020833                       # average ReadReq mshr miss latency ((Tick/Count))
system.cpu.dcache.ReadReq.avgMshrMissLatency::total 68638.020833                       # average ReadReq mshr miss latency ((Tick/Count))
system.cpu.dcache.SoftPFReq.hits::cpu.data            2                       # number of SoftPFReq hits (Count)
system.cpu.dcache.SoftPFReq.hits::total             2                       # number of SoftPFReq hits (Count)
system.cpu.dcache.SoftPFReq.misses::cpu.data            4                       # number of SoftPFReq misses (Count)
system.cpu.dcache.SoftPFReq.misses::total            4                       # number of SoftPFReq misses (Count)
system.cpu.dcache.SoftPFReq.accesses::cpu.data            6                       # number of SoftPFReq accesses(hits+misses) (Count)
system.cpu.dcache.SoftPFReq.accesses::total            6                       # number of SoftPFReq accesses(hits+misses) (Count)
system.cpu.dcache.SoftPFReq.missRate::cpu.data     0.666667                       # miss rate for SoftPFReq accesses (Ratio)
system.cpu.dcache.SoftPFReq.missRate::total     0.666667                       # miss rate for SoftPFReq accesses (Ratio)
system.cpu.dcache.SoftPFReq.mshrMisses::cpu.data            4                       # number of SoftPFReq MSHR misses (Count)
system.cpu.dcache.SoftPFReq.mshrMisses::total            4                       # number of SoftPFReq MSHR misses (Count)
system.cpu.dcache.SoftPFReq.mshrMissLatency::cpu.data       285000                       # number of SoftPFReq MSHR miss ticks (Tick)
system.cpu.dcache.SoftPFReq.mshrMissLatency::total       285000                       # number of SoftPFReq MSHR miss ticks (Tick)
system.cpu.dcache.SoftPFReq.mshrMissRate::cpu.data     0.666667                       # mshr miss rate for SoftPFReq accesses (Ratio)
system.cpu.dcache.SoftPFReq.mshrMissRate::total     0.666667                       # mshr miss rate for SoftPFReq accesses (Ratio)
system.cpu.dcache.SoftPFReq.avgMshrMissLatency::cpu.data        71250                       # average SoftPFReq mshr miss latency ((Tick/Count))
system.cpu.dcache.SoftPFReq.avgMshrMissLatency::total        71250                       # average SoftPFReq mshr miss latency ((Tick/Count))
system.cpu.dcache.StoreCondReq.hits::cpu.data            4                       # number of StoreCondReq hits (Count)
system.cpu.dcache.StoreCondReq.hits::total            4                       # number of StoreCondReq hits (Count)
system.cpu.dcache.StoreCondReq.accesses::cpu.data            4                       # number of StoreCondReq accesses(hits+misses) (Count)
system.cpu.dcache.StoreCondReq.accesses::total            4                       # number of StoreCondReq accesses(hits+misses) (Count)
system.cpu.dcache.SwapReq.hits::cpu.data           14                       # number of SwapReq hits (Count)
system.cpu.dcache.SwapReq.hits::total              14                       # number of SwapReq hits (Count)
system.cpu.dcache.SwapReq.accesses::cpu.data           14                       # number of SwapReq accesses(hits+misses) (Count)
system.cpu.dcache.SwapReq.accesses::total           14                       # number of SwapReq accesses(hits+misses) (Count)
system.cpu.dcache.WriteLineReq.misses::cpu.data            7                       # number of WriteLineReq misses (Count)
system.cpu.dcache.WriteLineReq.misses::total            7                       # number of WriteLineReq misses (Count)
system.cpu.dcache.WriteLineReq.missLatency::cpu.data        76998                       # number of WriteLineReq miss ticks (Tick)
system.cpu.dcache.WriteLineReq.missLatency::total        76998                       # number of WriteLineReq miss ticks (Tick)
system.cpu.dcache.WriteLineReq.accesses::cpu.data            7                       # number of WriteLineReq accesses(hits+misses) (Count)
system.cpu.dcache.WriteLineReq.accesses::total            7                       # number of WriteLineReq accesses(hits+misses) (Count)
system.cpu.dcache.WriteLineReq.missRate::cpu.data            1                       # miss rate for WriteLineReq accesses (Ratio)
system.cpu.dcache.WriteLineReq.missRate::total            1                       # miss rate for WriteLineReq accesses (Ratio)
system.cpu.dcache.WriteLineReq.avgMissLatency::cpu.data 10999.714286                       # average WriteLineReq miss latency ((Tick/Count))
system.cpu.dcache.WriteLineReq.avgMissLatency::total 10999.714286                       # average WriteLineReq miss latency ((Tick/Count))
system.cpu.dcache.WriteLineReq.mshrMisses::cpu.data            7                       # number of WriteLineReq MSHR misses (Count)
system.cpu.dcache.WriteLineReq.mshrMisses::total            7                       # number of WriteLineReq MSHR misses (Count)
system.cpu.dcache.WriteLineReq.mshrMissLatency::cpu.data        69998                       # number of WriteLineReq MSHR miss ticks (Tick)
system.cpu.dcache.WriteLineReq.mshrMissLatency::total        69998                       # number of WriteLineReq MSHR miss ticks (Tick)
system.cpu.dcache.WriteLineReq.mshrMissRate::cpu.data            1                       # mshr miss rate for WriteLineReq accesses (Ratio)
system.cpu.dcache.WriteLineReq.mshrMissRate::total            1                       # mshr miss rate for WriteLineReq accesses (Ratio)
system.cpu.dcache.WriteLineReq.avgMshrMissLatency::cpu.data  9999.714286                       # average WriteLineReq mshr miss latency ((Tick/Count))
system.cpu.dcache.WriteLineReq.avgMshrMissLatency::total  9999.714286                       # average WriteLineReq mshr miss latency ((Tick/Count))
system.cpu.dcache.WriteReq.hits::cpu.data         8533                       # number of WriteReq hits (Count)
system.cpu.dcache.WriteReq.hits::total           8533                       # number of WriteReq hits (Count)
system.cpu.dcache.WriteReq.misses::cpu.data          605                       # number of WriteReq misses (Count)
system.cpu.dcache.WriteReq.misses::total          605                       # number of WriteReq misses (Count)
system.cpu.dcache.WriteReq.missLatency::cpu.data     32344476                       # number of WriteReq miss ticks (Tick)
system.cpu.dcache.WriteReq.missLatency::total     32344476                       # number of WriteReq miss ticks (Tick)
system.cpu.dcache.WriteReq.accesses::cpu.data         9138                       # number of WriteReq accesses(hits+misses) (Count)
system.cpu.dcache.WriteReq.accesses::total         9138                       # number of WriteReq accesses(hits+misses) (Count)
system.cpu.dcache.WriteReq.missRate::cpu.data     0.066207                       # miss rate for WriteReq accesses (Ratio)
system.cpu.dcache.WriteReq.missRate::total     0.066207                       # miss rate for WriteReq accesses (Ratio)
system.cpu.dcache.WriteReq.avgMissLatency::cpu.data 53461.943802                       # average WriteReq miss latency ((Tick/Count))
system.cpu.dcache.WriteReq.avgMissLatency::total 53461.943802                       # average WriteReq miss latency ((Tick/Count))
system.cpu.dcache.WriteReq.mshrHits::cpu.data          475                       # number of WriteReq MSHR hits (Count)
system.cpu.dcache.WriteReq.mshrHits::total          475                       # number of WriteReq MSHR hits (Count)
system.cpu.dcache.WriteReq.mshrMisses::cpu.data          130                       # number of WriteReq MSHR misses (Count)
system.cpu.dcache.WriteReq.mshrMisses::total          130                       # number of WriteReq MSHR misses (Count)
system.cpu.dcache.WriteReq.mshrMissLatency::cpu.data      7946498                       # number of WriteReq MSHR miss ticks (Tick)
system.cpu.dcache.WriteReq.mshrMissLatency::total      7946498                       # number of WriteReq MSHR miss ticks (Tick)
system.cpu.dcache.WriteReq.mshrMissRate::cpu.data     0.014226                       # mshr miss rate for WriteReq accesses (Ratio)
system.cpu.dcache.WriteReq.mshrMissRate::total     0.014226                       # mshr miss rate for WriteReq accesses (Ratio)
system.cpu.dcache.WriteReq.avgMshrMissLatency::cpu.data 61126.907692                       # average WriteReq mshr miss latency ((Tick/Count))
system.cpu.dcache.WriteReq.avgMshrMissLatency::total 61126.907692                       # average WriteReq mshr miss latency ((Tick/Count))
system.cpu.dcache.power_state.pwrStateResidencyTicks::UNDEFINED     48983000                       # Cumulative time (in ticks) in various power states (Tick)
system.cpu.dcache.tags.tagsInUse           105.873732                       # Average ticks per tags in use ((Tick/Count))
system.cpu.dcache.tags.totalRefs                24213                       # Total number of references to valid blocks. (Count)
system.cpu.dcache.tags.sampledRefs                334                       # Sample count of references to valid blocks. (Count)
system.cpu.dcache.tags.avgRefs              72.494012                       # Average number of references to valid blocks. ((Count/Count))
system.cpu.dcache.tags.warmupTick              145000                       # The tick when the warmup percentage was hit. (Tick)
system.cpu.dcache.tags.occupancies::cpu.data   105.873732                       # Average occupied blocks per tick, per requestor ((Count/Tick))
system.cpu.dcache.tags.avgOccs::cpu.data     0.827139                       # Average percentage of cache occupancy ((Ratio/Tick))
system.cpu.dcache.tags.avgOccs::total        0.827139                       # Average percentage of cache occupancy ((Ratio/Tick))
system.cpu.dcache.tags.occupanciesTaskId::1024          126                       # Occupied blocks per task id (Count)
system.cpu.dcache.tags.ageTaskId_1024::0           36                       # Occupied blocks per task id, per block age (Count)
system.cpu.dcache.tags.ageTaskId_1024::1           90                       # Occupied blocks per task id, per block age (Count)
system.cpu.dcache.tags.ratioOccsTaskId::1024     0.984375                       # Ratio of occupied blocks and all blocks, per task id (Ratio)
system.cpu.dcache.tags.tagAccesses              49976                       # Number of tag accesses (Count)
system.cpu.dcache.tags.dataAccesses             49976                       # Number of data accesses (Count)
system.cpu.dcache.tags.power_state.pwrStateResidencyTicks::UNDEFINED     48983000                       # Cumulative time (in ticks) in various power states (Tick)
system.cpu.decode.idleCycles                    23511                       # Number of cycles decode is idle (Cycle)
system.cpu.decode.blockedCycles                 13208                       # Number of cycles decode is blocked (Cycle)
system.cpu.decode.runCycles                     17396                       # Number of cycles decode is running (Cycle)
system.cpu.decode.unblockCycles                  1415                       # Number of cycles decode is unblocking (Cycle)
system.cpu.decode.squashCycles                   1073                       # Number of cycles decode is squashing (Cycle)
system.cpu.decode.branchResolved                 6010                       # Number of times decode resolved a branch (Count)
system.cpu.decode.branchMispred                   354                       # Number of times decode detected a branch misprediction (Count)
system.cpu.decode.decodedInsts                 104848                       # Number of instructions handled by decode (Count)
system.cpu.decode.squashedInsts                  1297                       # Number of squashed instructions handled by decode (Count)
system.cpu.fetch.icacheStallCycles              28153                       # Number of cycles fetch is stalled on an Icache miss (Cycle)
system.cpu.fetch.insts                         103255                       # Number of instructions fetch has processed (Count)
system.cpu.fetch.branches                       14917                       # Number of branches that fetch encountered (Count)
system.cpu.fetch.predictedBranches               7780                       # Number of branches that fetch has predicted taken (Count)
system.cpu.fetch.cycles                         26948                       # Number of cycles fetch has run and was not squashing or blocked (Cycle)
system.cpu.fetch.squashCycles                    2840                       # Number of cycles fetch has spent squashing (Cycle)
system.cpu.fetch.miscStallCycles                   80                       # Number of cycles fetch has spent waiting on interrupts, or bad addresses, or out of MSHRs (Cycle)
system.cpu.fetch.icacheWaitRetryStallCycles            2                       # Number of stall cycles due to full MSHR (Cycle)
system.cpu.fetch.cacheLines                     14353                       # Number of cache lines fetched (Count)
system.cpu.fetch.icacheSquashes                   796                       # Number of outstanding Icache misses that were squashed (Count)
system.cpu.fetch.nisnDist::samples              56603                       # Number of instructions fetched each cycle (Total) (Count)
system.cpu.fetch.nisnDist::mean              2.008957                       # Number of instructions fetched each cycle (Total) (Count)
system.cpu.fetch.nisnDist::stdev             3.060271                       # Number of instructions fetched each cycle (Total) (Count)
system.cpu.fetch.nisnDist::underflows               0      0.00%      0.00% # Number of instructions fetched each cycle (Total) (Count)
system.cpu.fetch.nisnDist::0                    35523     62.76%     62.76% # Number of instructions fetched each cycle (Total) (Count)
system.cpu.fetch.nisnDist::1                     1971      3.48%     66.24% # Number of instructions fetched each cycle (Total) (Count)
system.cpu.fetch.nisnDist::2                     2603      4.60%     70.84% # Number of instructions fetched each cycle (Total) (Count)
system.cpu.fetch.nisnDist::3                     1774      3.13%     73.97% # Number of instructions fetched each cycle (Total) (Count)
system.cpu.fetch.nisnDist::4                     1855      3.28%     77.25% # Number of instructions fetched each cycle (Total) (Count)
system.cpu.fetch.nisnDist::5                     2043      3.61%     80.86% # Number of instructions fetched each cycle (Total) (Count)
system.cpu.fetch.nisnDist::6                     1226      2.17%     83.03% # Number of instructions fetched each cycle (Total) (Count)
system.cpu.fetch.nisnDist::7                      641      1.13%     84.16% # Number of instructions fetched each cycle (Total) (Count)
system.cpu.fetch.nisnDist::8                     8967     15.84%    100.00% # Number of instructions fetched each cycle (Total) (Count)
system.cpu.fetch.nisnDist::overflows                0      0.00%    100.00% # Number of instructions fetched each cycle (Total) (Count)
system.cpu.fetch.nisnDist::min_value                0                       # Number of instructions fetched each cycle (Total) (Count)
system.cpu.fetch.nisnDist::max_value                8                       # Number of instructions fetched each cycle (Total) (Count)
system.cpu.fetch.nisnDist::total                56603                       # Number of instructions fetched each cycle (Total) (Count)
system.cpu.fetch.branchRate                  0.152266                       # Number of branch fetches per cycle (Ratio)
system.cpu.fetch.rate                        1.053977                       # Number of inst fetches per cycle ((Count/Cycle))
system.cpu.icache.demandHits::cpu.inst          13441                       # number of demand (read+write) hits (Count)
system.cpu.icache.demandHits::total             13441                       # number of demand (read+write) hits (Count)
system.cpu.icache.overallHits::cpu.inst         13441                       # number of overall hits (Count)
system.cpu.icache.overallHits::total            13441                       # number of overall hits (Count)
system.cpu.icache.demandMisses::cpu.inst          911                       # number of demand (read+write) misses (Count)
system.cpu.icache.demandMisses::total             911                       # number of demand (read+write) misses (Count)
system.cpu.icache.overallMisses::cpu.inst          911                       # number of overall misses (Count)
system.cpu.icache.overallMisses::total            911                       # number of overall misses (Count)
system.cpu.icache.demandMissLatency::cpu.inst     55017500                       # number of demand (read+write) miss ticks (Tick)
system.cpu.icache.demandMissLatency::total     55017500                       # number of demand (read+write) miss ticks (Tick)
system.cpu.icache.overallMissLatency::cpu.inst     55017500                       # number of overall miss ticks (Tick)
system.cpu.icache.overallMissLatency::total     55017500                       # number of overall miss ticks (Tick)
system.cpu.icache.demandAccesses::cpu.inst        14352                       # number of demand (read+write) accesses (Count)
system.cpu.icache.demandAccesses::total         14352                       # number of demand (read+write) accesses (Count)
system.cpu.icache.overallAccesses::cpu.inst        14352                       # number of overall (read+write) accesses (Count)
system.cpu.icache.overallAccesses::total        14352                       # number of overall (read+write) accesses (Count)
system.cpu.icache.demandMissRate::cpu.inst     0.063475                       # miss rate for demand accesses (Ratio)
system.cpu.icache.demandMissRate::total      0.063475                       # miss rate for demand accesses (Ratio)
system.cpu.icache.overallMissRate::cpu.inst     0.063475                       # miss rate for overall accesses (Ratio)
system.cpu.icache.overallMissRate::total     0.063475                       # miss rate for overall accesses (Ratio)
system.cpu.icache.demandAvgMissLatency::cpu.inst 60392.425906                       # average overall miss latency ((Cycle/Count))
system.cpu.icache.demandAvgMissLatency::total 60392.425906                       # average overall miss latency ((Cycle/Count))
system.cpu.icache.overallAvgMissLatency::cpu.inst 60392.425906                       # average overall miss latency ((Cycle/Count))
system.cpu.icache.overallAvgMissLatency::total 60392.425906                       # average overall miss latency ((Cycle/Count))
system.cpu.icache.blockedCycles::no_mshrs          362                       # number of cycles access was blocked (Cycle)
system.cpu.icache.blockedCycles::no_targets            0                       # number of cycles access was blocked (Cycle)
system.cpu.icache.blockedCauses::no_mshrs            5                       # number of times access was blocked (Count)
system.cpu.icache.blockedCauses::no_targets            0                       # number of times access was blocked (Count)
system.cpu.icache.avgBlocked::no_mshrs      72.400000                       # average number of cycles each access was blocked ((Cycle/Count))
system.cpu.icache.avgBlocked::no_targets          nan                       # average number of cycles each access was blocked ((Cycle/Count))
system.cpu.icache.writebacks::writebacks          238                       # number of writebacks (Count)
system.cpu.icache.writebacks::total               238                       # number of writebacks (Count)
system.cpu.icache.demandMshrHits::cpu.inst          234                       # number of demand (read+write) MSHR hits (Count)
system.cpu.icache.demandMshrHits::total           234                       # number of demand (read+write) MSHR hits (Count)
system.cpu.icache.overallMshrHits::cpu.inst          234                       # number of overall MSHR hits (Count)
system.cpu.icache.overallMshrHits::total          234                       # number of overall MSHR hits (Count)
system.cpu.icache.demandMshrMisses::cpu.inst          677                       # number of demand (read+write) MSHR misses (Count)
system.cpu.icache.demandMshrMisses::total          677                       # number of demand (read+write) MSHR misses (Count)
system.cpu.icache.overallMshrMisses::cpu.inst          677                       # number of overall MSHR misses (Count)
system.cpu.icache.overallMshrMisses::total          677                       # number of overall MSHR misses (Count)
system.cpu.icache.demandMshrMissLatency::cpu.inst     42575500                       # number of demand (read+write) MSHR miss ticks (Tick)
system.cpu.icache.demandMshrMissLatency::total     42575500                       # number of demand (read+write) MSHR miss ticks (Tick)
system.cpu.icache.overallMshrMissLatency::cpu.inst     42575500                       # number of overall MSHR miss ticks (Tick)
system.cpu.icache.overallMshrMissLatency::total     42575500                       # number of overall MSHR miss ticks (Tick)
system.cpu.icache.demandMshrMissRate::cpu.inst     0.047171                       # mshr miss ratio for demand accesses (Ratio)
system.cpu.icache.demandMshrMissRate::total     0.047171                       # mshr miss ratio for demand accesses (Ratio)
system.cpu.icache.overallMshrMissRate::cpu.inst     0.047171                       # mshr miss ratio for overall accesses (Ratio)
system.cpu.icache.overallMshrMissRate::total     0.047171                       # mshr miss ratio for overall accesses (Ratio)
system.cpu.icache.demandAvgMshrMissLatency::cpu.inst 62888.478582                       # average overall mshr miss latency ((Cycle/Count))
system.cpu.icache.demandAvgMshrMissLatency::total 62888.478582                       # average overall mshr miss latency ((Cycle/Count))
system.cpu.icache.overallAvgMshrMissLatency::cpu.inst 62888.478582                       # average overall mshr miss latency ((Cycle/Count))
system.cpu.icache.overallAvgMshrMissLatency::total 62888.478582                       # average overall mshr miss latency ((Cycle/Count))
system.cpu.icache.replacements                    238                       # number of replacements (Count)
system.cpu.icache.ReadReq.hits::cpu.inst        13441                       # number of ReadReq hits (Count)
system.cpu.icache.ReadReq.hits::total           13441                       # number of ReadReq hits (Count)
system.cpu.icache.ReadReq.misses::cpu.inst          911                       # number of ReadReq misses (Count)
system.cpu.icache.ReadReq.misses::total           911                       # number of ReadReq misses (Count)
system.cpu.icache.ReadReq.missLatency::cpu.inst     55017500                       # number of ReadReq miss ticks (Tick)
system.cpu.icache.ReadReq.missLatency::total     55017500                       # number of ReadReq miss ticks (Tick)
system.cpu.icache.ReadReq.accesses::cpu.inst        14352                       # number of ReadReq accesses(hits+misses) (Count)
system.cpu.icache.ReadReq.accesses::total        14352                       # number of ReadReq accesses(hits+misses) (Count)
system.cpu.icache.ReadReq.missRate::cpu.inst     0.063475                       # miss rate for ReadReq accesses (Ratio)
system.cpu.icache.ReadReq.missRate::total     0.063475                       # miss rate for ReadReq accesses (Ratio)
system.cpu.icache.ReadReq.avgMissLatency::cpu.inst 60392.425906                       # average ReadReq miss latency ((Tick/Count))
system.cpu.icache.ReadReq.avgMissLatency::total 60392.425906                       # average ReadReq miss latency ((Tick/Count))
system.cpu.icache.ReadReq.mshrHits::cpu.inst          234                       # number of ReadReq MSHR hits (Count)
system.cpu.icache.ReadReq.mshrHits::total          234                       # number of ReadReq MSHR hits (Count)
system.cpu.icache.ReadReq.mshrMisses::cpu.inst          677                       # number of ReadReq MSHR misses (Count)
system.cpu.icache.ReadReq.mshrMisses::total          677                       # number of ReadReq MSHR misses (Count)
system.cpu.icache.ReadReq.mshrMissLatency::cpu.inst     42575500                       # number of ReadReq MSHR miss ticks (Tick)
system.cpu.icache.ReadReq.mshrMissLatency::total     42575500                       # number of ReadReq MSHR miss ticks (Tick)
system.cpu.icache.ReadReq.mshrMissRate::cpu.inst     0.047171                       # mshr miss rate for ReadReq accesses (Ratio)
system.cpu.icache.ReadReq.mshrMissRate::total     0.047171                       # mshr miss rate for ReadReq accesses (Ratio)
system.cpu.icache.ReadReq.avgMshrMissLatency::cpu.inst 62888.478582                       # average ReadReq mshr miss latency ((Tick/Count))
system.cpu.icache.ReadReq.avgMshrMissLatency::total 62888.478582                       # average ReadReq mshr miss latency ((Tick/Count))
system.cpu.icache.power_state.pwrStateResidencyTicks::UNDEFINED     48983000                       # Cumulative time (in ticks) in various power states (Tick)
system.cpu.icache.tags.tagsInUse           296.986529                       # Average ticks per tags in use ((Tick/Count))
system.cpu.icache.tags.totalRefs                14117                       # Total number of references to valid blocks. (Count)
system.cpu.icache.tags.sampledRefs                676                       # Sample count of references to valid blocks. (Count)
system.cpu.icache.tags.avgRefs              20.883136                       # Average number of references to valid blocks. ((Count/Count))
system.cpu.icache.tags.warmupTick               77000                       # The tick when the warmup percentage was hit. (Tick)
system.cpu.icache.tags.occupancies::cpu.inst   296.986529                       # Average occupied blocks per tick, per requestor ((Count/Tick))
system.cpu.icache.tags.avgOccs::cpu.inst     0.580052                       # Average percentage of cache occupancy ((Ratio/Tick))
system.cpu.icache.tags.avgOccs::total        0.580052                       # Average percentage of cache occupancy ((Ratio/Tick))
system.cpu.icache.tags.occupanciesTaskId::1024          438                       # Occupied blocks per task id (Count)
system.cpu.icache.tags.ageTaskId_1024::0          137                       # Occupied blocks per task id, per block age (Count)
system.cpu.icache.tags.ageTaskId_1024::1          301                       # Occupied blocks per task id, per block age (Count)
system.cpu.icache.tags.ratioOccsTaskId::1024     0.855469                       # Ratio of occupied blocks and all blocks, per task id (Ratio)
system.cpu.icache.tags.tagAccesses              29380                       # Number of tag accesses (Count)
system.cpu.icache.tags.dataAccesses             29380                       # Number of data accesses (Count)
system.cpu.icache.tags.power_state.pwrStateResidencyTicks::UNDEFINED     48983000                       # Cumulative time (in ticks) in various power states (Tick)
system.cpu.iew.idleCycles                           0                       # Number of cycles IEW is idle (Cycle)
system.cpu.iew.squashCycles                      1073                       # Number of cycles IEW is squashing (Cycle)
system.cpu.iew.blockCycles                       2340                       # Number of cycles IEW is blocking (Cycle)
system.cpu.iew.unblockCycles                      228                       # Number of cycles IEW is unblocking (Cycle)
system.cpu.iew.dispatchedInsts                  97109                       # Number of instructions dispatched to IQ (Count)
system.cpu.iew.dispSquashedInsts                  310                       # Number of squashed instructions skipped by dispatch (Count)
system.cpu.iew.dispLoadInsts                    19166                       # Number of dispatched load instructions (Count)
system.cpu.iew.dispStoreInsts                   11204                       # Number of dispatched store instructions (Count)
system.cpu.iew.dispNonSpecInsts                   105                       # Number of dispatched non-speculative instructions (Count)
system.cpu.iew.iqFullEvents                         9                       # Number of times the IQ has become full, causing a stall (Count)
system.cpu.iew.lsqFullEvents                      218                       # Number of times the LSQ has become full, causing a stall (Count)
system.cpu.iew.memOrderViolationEvents            156                       # Number of memory order violations (Count)
system.cpu.iew.predictedTakenIncorrect            206                       # Number of branches that were predicted taken incorrectly (Count)
system.cpu.iew.predictedNotTakenIncorrect          821                       # Number of branches that were predicted not taken incorrectly (Count)
system.cpu.iew.branchMispredicts                 1027                       # Number of branch mispredicts detected at execute (Count)
system.cpu.iew.instsToCommit                    88889                       # Cumulative count of insts sent to commit (Count)
system.cpu.iew.writebackCount                   88150                       # Cumulative count of insts written-back (Count)
system.cpu.iew.producerInst                     55246                       # Number of instructions producing a value (Count)
[...]
system.mem_ctrls.dram.bwRead::cpu.inst      883245208                       # Total read bandwidth from this memory ((Byte/Second))
system.mem_ctrls.dram.bwRead::cpu.data      424637119                       # Total read bandwidth from this memory ((Byte/Second))
system.mem_ctrls.dram.bwRead::total        1307882327                       # Total read bandwidth from this memory ((Byte/Second))
system.mem_ctrls.dram.bwInstRead::cpu.inst    883245208                       # Instruction read bandwidth from this memory ((Byte/Second))
system.mem_ctrls.dram.bwInstRead::total     883245208                       # Instruction read bandwidth from this memory ((Byte/Second))
system.mem_ctrls.dram.bwWrite::writebacks    135883878                       # Write bandwidth from this memory ((Byte/Second))
system.mem_ctrls.dram.bwWrite::total        135883878                       # Write bandwidth from this memory ((Byte/Second))
system.mem_ctrls.dram.bwTotal::writebacks    135883878                       # Total bandwidth to/from this memory ((Byte/Second))
system.mem_ctrls.dram.bwTotal::cpu.inst     883245208                       # Total bandwidth to/from this memory ((Byte/Second))
system.mem_ctrls.dram.bwTotal::cpu.data     424637119                       # Total bandwidth to/from this memory ((Byte/Second))
system.mem_ctrls.dram.bwTotal::total       1443766205                       # Total bandwidth to/from this memory ((Byte/Second))
system.mem_ctrls.dram.readBursts                  966                       # Number of DRAM read bursts (Count)
system.mem_ctrls.dram.writeBursts                 310                       # Number of DRAM write bursts (Count)
system.mem_ctrls.dram.perBankRdBursts::0          149                       # Per bank write bursts (Count)
system.mem_ctrls.dram.perBankRdBursts::1          176                       # Per bank write bursts (Count)
system.mem_ctrls.dram.perBankRdBursts::2           95                       # Per bank write bursts (Count)
system.mem_ctrls.dram.perBankRdBursts::3           96                       # Per bank write bursts (Count)
system.mem_ctrls.dram.perBankRdBursts::4           84                       # Per bank write bursts (Count)
system.mem_ctrls.dram.perBankRdBursts::5           67                       # Per bank write bursts (Count)
system.mem_ctrls.dram.perBankRdBursts::6            8                       # Per bank write bursts (Count)
system.mem_ctrls.dram.perBankRdBursts::7            3                       # Per bank write bursts (Count)
system.mem_ctrls.dram.perBankRdBursts::8           16                       # Per bank write bursts (Count)
system.mem_ctrls.dram.perBankRdBursts::9           45                       # Per bank write bursts (Count)
system.mem_ctrls.dram.perBankRdBursts::10           16                       # Per bank write bursts (Count)
system.mem_ctrls.dram.perBankRdBursts::11           28                       # Per bank write bursts (Count)
system.mem_ctrls.dram.perBankRdBursts::12           39                       # Per bank write bursts (Count)
system.mem_ctrls.dram.perBankRdBursts::13           58                       # Per bank write bursts (Count)
system.mem_ctrls.dram.perBankRdBursts::14           18                       # Per bank write bursts (Count)
system.mem_ctrls.dram.perBankRdBursts::15           68                       # Per bank write bursts (Count)
system.mem_ctrls.dram.perBankWrBursts::0           27                       # Per bank write bursts (Count)
system.mem_ctrls.dram.perBankWrBursts::1           63                       # Per bank write bursts (Count)
system.mem_ctrls.dram.perBankWrBursts::2           41                       # Per bank write bursts (Count)
system.mem_ctrls.dram.perBankWrBursts::3           30                       # Per bank write bursts (Count)
system.mem_ctrls.dram.perBankWrBursts::4           47                       # Per bank write bursts (Count)
system.mem_ctrls.dram.perBankWrBursts::5           32                       # Per bank write bursts (Count)
system.mem_ctrls.dram.perBankWrBursts::6            3                       # Per bank write bursts (Count)
system.mem_ctrls.dram.perBankWrBursts::7            1                       # Per bank write bursts (Count)
system.mem_ctrls.dram.perBankWrBursts::8            7                       # Per bank write bursts (Count)
system.mem_ctrls.dram.perBankWrBursts::9            7                       # Per bank write bursts (Count)
system.mem_ctrls.dram.perBankWrBursts::10            4                       # Per bank write bursts (Count)
system.mem_ctrls.dram.perBankWrBursts::11            7                       # Per bank write bursts (Count)
system.mem_ctrls.dram.perBankWrBursts::12            3                       # Per bank write bursts (Count)
system.mem_ctrls.dram.perBankWrBursts::13            2                       # Per bank write bursts (Count)
system.mem_ctrls.dram.perBankWrBursts::14           12                       # Per bank write bursts (Count)
system.mem_ctrls.dram.perBankWrBursts::15           24                       # Per bank write bursts (Count)
system.mem_ctrls.dram.totQLat                14176250                       # Total ticks spent queuing (Tick)
system.mem_ctrls.dram.totBusLat               4830000                       # Total ticks spent in databus transfers (Tick)
system.mem_ctrls.dram.totMemAccLat           32288750                       # Total ticks spent from burst creation until serviced by the DRAM (Tick)
system.mem_ctrls.dram.avgQLat                14675.21                       # Average queueing delay per DRAM burst ((Tick/Count))
system.mem_ctrls.dram.avgBusLat               5000.00                       # Average bus latency per DRAM burst ((Tick/Count))
system.mem_ctrls.dram.avgMemAccLat           33425.21                       # Average memory access latency per DRAM burst ((Tick/Count))
system.mem_ctrls.dram.readRowHits                 741                       # Number of row buffer hits during reads (Count)
system.mem_ctrls.dram.writeRowHits                246                       # Number of row buffer hits during writes (Count)
system.mem_ctrls.dram.readRowHitRate            76.71                       # Row buffer hit rate for reads (Ratio)
system.mem_ctrls.dram.writeRowHitRate           79.35                       # Row buffer hit rate for writes (Ratio)
system.mem_ctrls.dram.bytesPerActivate::samples          279                       # Bytes accessed per row activation (Byte)
system.mem_ctrls.dram.bytesPerActivate::mean   283.526882                       # Bytes accessed per row activation (Byte)
system.mem_ctrls.dram.bytesPerActivate::gmean   181.358994                       # Bytes accessed per row activation (Byte)
system.mem_ctrls.dram.bytesPerActivate::stdev   286.226664                       # Bytes accessed per row activation (Byte)
system.mem_ctrls.dram.bytesPerActivate::0-127           88     31.54%     31.54% # Bytes accessed per row activation (Byte)
system.mem_ctrls.dram.bytesPerActivate::128-255           86     30.82%     62.37% # Bytes accessed per row activation (Byte)
system.mem_ctrls.dram.bytesPerActivate::256-383           31     11.11%     73.48% # Bytes accessed per row activation (Byte)
system.mem_ctrls.dram.bytesPerActivate::384-511           15      5.38%     78.85% # Bytes accessed per row activation (Byte)
system.mem_ctrls.dram.bytesPerActivate::512-639           20      7.17%     86.02% # Bytes accessed per row activation (Byte)
system.mem_ctrls.dram.bytesPerActivate::640-767            9      3.23%     89.25% # Bytes accessed per row activation (Byte)
system.mem_ctrls.dram.bytesPerActivate::768-895            6      2.15%     91.40% # Bytes accessed per row activation (Byte)
system.mem_ctrls.dram.bytesPerActivate::896-1023            6      2.15%     93.55% # Bytes accessed per row activation (Byte)
system.mem_ctrls.dram.bytesPerActivate::1024-1151           18      6.45%    100.00% # Bytes accessed per row activation (Byte)
system.mem_ctrls.dram.bytesPerActivate::total          279                       # Bytes accessed per row activation (Byte)
system.mem_ctrls.dram.bytesRead                 61824                       # Total bytes read (Byte)
system.mem_ctrls.dram.bytesWritten              19840                       # Total bytes written (Byte)
system.mem_ctrls.dram.avgRdBW             1262.152175                       # Average DRAM read bandwidth in MiBytes/s ((Byte/Second))
system.mem_ctrls.dram.avgWrBW              405.038483                       # Average DRAM write bandwidth in MiBytes/s ((Byte/Second))
system.mem_ctrls.dram.peakBW                 12800.00                       # Theoretical peak bandwidth in MiByte/s ((Byte/Second))
system.mem_ctrls.dram.busUtil                   13.02                       # Data bus utilization in percentage (Ratio)
system.mem_ctrls.dram.busUtilRead                9.86                       # Data bus utilization in percentage for reads (Ratio)
system.mem_ctrls.dram.busUtilWrite               3.16                       # Data bus utilization in percentage for writes (Ratio)
system.mem_ctrls.dram.pageHitRate               77.35                       # Row buffer hit rate, read and write combined (Ratio)
system.mem_ctrls.dram.power_state.pwrStateResidencyTicks::UNDEFINED     48983000                       # Cumulative time (in ticks) in various power states (Tick)
system.mem_ctrls.dram.rank0.actEnergy         1506540                       # Energy for activate commands per rank (pJ) (Joule)
system.mem_ctrls.dram.rank0.preEnergy          785565                       # Energy for precharge commands per rank (pJ) (Joule)
system.mem_ctrls.dram.rank0.readEnergy        4833780                       # Energy for read commands per rank (pJ) (Joule)
system.mem_ctrls.dram.rank0.writeEnergy       1273680                       # Energy for write commands per rank (pJ) (Joule)
system.mem_ctrls.dram.rank0.refreshEnergy 3687840.000000                       # Energy for refresh commands per rank (pJ) (Joule)
system.mem_ctrls.dram.rank0.actBackEnergy     22125690                       # Energy for active background per rank (pJ) (Joule)
system.mem_ctrls.dram.rank0.preBackEnergy       177600                       # Energy for precharge background per rank (pJ) (Joule)
system.mem_ctrls.dram.rank0.actPowerDownEnergy            0                       # Energy for active power-down per rank (pJ) (Joule)
system.mem_ctrls.dram.rank0.prePowerDownEnergy            0                       # Energy for precharge power-down per rank (pJ) (Joule)
system.mem_ctrls.dram.rank0.selfRefreshEnergy            0                       # Energy for self refresh per rank (pJ) (Joule)
system.mem_ctrls.dram.rank0.totalEnergy      34390695                       # Total energy per rank (pJ) (Joule)
system.mem_ctrls.dram.rank0.averagePower   702.094502                       # Core power per rank (mW) (Watt)
system.mem_ctrls.dram.rank0.totalIdleTime            0                       # Total Idle time Per DRAM Rank (Tick)
system.mem_ctrls.dram.rank0.pwrStateTime::IDLE       283250                       # Time in different power states (Tick)
system.mem_ctrls.dram.rank0.pwrStateTime::REF      1560000                       # Time in different power states (Tick)
system.mem_ctrls.dram.rank0.pwrStateTime::SREF            0                       # Time in different power states (Tick)
system.mem_ctrls.dram.rank0.pwrStateTime::PRE_PDN            0                       # Time in different power states (Tick)
system.mem_ctrls.dram.rank0.pwrStateTime::ACT     47139750                       # Time in different power states (Tick)
system.mem_ctrls.dram.rank0.pwrStateTime::ACT_PDN            0                       # Time in different power states (Tick)
system.mem_ctrls.dram.rank1.actEnergy          556920                       # Energy for activate commands per rank (pJ) (Joule)
system.mem_ctrls.dram.rank1.preEnergy          273240                       # Energy for precharge commands per rank (pJ) (Joule)
system.mem_ctrls.dram.rank1.readEnergy        2056320                       # Energy for read commands per rank (pJ) (Joule)
system.mem_ctrls.dram.rank1.writeEnergy        344520                       # Energy for write commands per rank (pJ) (Joule)
system.mem_ctrls.dram.rank1.refreshEnergy 3687840.000000                       # Energy for refresh commands per rank (pJ) (Joule)
system.mem_ctrls.dram.rank1.actBackEnergy     21706740                       # Energy for active background per rank (pJ) (Joule)
system.mem_ctrls.dram.rank1.preBackEnergy       530400                       # Energy for precharge background per rank (pJ) (Joule)
system.mem_ctrls.dram.rank1.actPowerDownEnergy            0                       # Energy for active power-down per rank (pJ) (Joule)
system.mem_ctrls.dram.rank1.prePowerDownEnergy            0                       # Energy for precharge power-down per rank (pJ) (Joule)
system.mem_ctrls.dram.rank1.selfRefreshEnergy            0                       # Energy for self refresh per rank (pJ) (Joule)
system.mem_ctrls.dram.rank1.totalEnergy      29155980                       # Total energy per rank (pJ) (Joule)
system.mem_ctrls.dram.rank1.averagePower   595.226507                       # Core power per rank (mW) (Watt)
system.mem_ctrls.dram.rank1.totalIdleTime            0                       # Total Idle time Per DRAM Rank (Tick)
system.mem_ctrls.dram.rank1.pwrStateTime::IDLE      1187000                       # Time in different power states (Tick)
system.mem_ctrls.dram.rank1.pwrStateTime::REF      1560000                       # Time in different power states (Tick)
system.mem_ctrls.dram.rank1.pwrStateTime::SREF            0                       # Time in different power states (Tick)
system.mem_ctrls.dram.rank1.pwrStateTime::PRE_PDN            0                       # Time in different power states (Tick)
system.mem_ctrls.dram.rank1.pwrStateTime::ACT     46236000                       # Time in different power states (Tick)
system.mem_ctrls.dram.rank1.pwrStateTime::ACT_PDN            0                       # Time in different power states (Tick)
system.mem_ctrls.power_state.pwrStateResidencyTicks::UNDEFINED     48983000                       # Cumulative time (in ticks) in various power states (Tick)
system.membus.transDist::ReadResp                 873                       # Transaction distribution (Count)
system.membus.transDist::WritebackDirty           104                       # Transaction distribution (Count)
system.membus.transDist::WritebackClean           238                       # Transaction distribution (Count)
system.membus.transDist::CleanEvict               104                       # Transaction distribution (Count)
system.membus.transDist::ReadExReq                128                       # Transaction distribution (Count)
system.membus.transDist::ReadExResp               128                       # Transaction distribution (Count)
system.membus.transDist::ReadCleanReq             677                       # Transaction distribution (Count)
system.membus.transDist::ReadSharedReq            197                       # Transaction distribution (Count)
system.membus.transDist::InvalidateReq              9                       # Transaction distribution (Count)
system.membus.pktCount_system.cpu.icache.mem_side_port::system.mem_ctrls.port         1591                       # Packet count per connected requestor and responder (Count)
system.membus.pktCount_system.cpu.dcache.mem_side_port::system.mem_ctrls.port          867                       # Packet count per connected requestor and responder (Count)
system.membus.pktCount::total                    2458                       # Packet count per connected requestor and responder (Count)
system.membus.pktSize_system.cpu.icache.mem_side_port::system.mem_ctrls.port        58496                       # Cumulative packet size per connected requestor and responder (Byte)
system.membus.pktSize_system.cpu.dcache.mem_side_port::system.mem_ctrls.port        27456                       # Cumulative packet size per connected requestor and responder (Byte)
system.membus.pktSize::total                    85952                       # Cumulative packet size per connected requestor and responder (Byte)
system.membus.snoops                                0                       # Total snoops (Count)
system.membus.snoopTraffic                          0                       # Total snoop traffic (Byte)
system.membus.snoopFanout::samples               1011                       # Request fanout histogram (Count)
system.membus.snoopFanout::mean              0.001978                       # Request fanout histogram (Count)
system.membus.snoopFanout::stdev             0.044455                       # Request fanout histogram (Count)
system.membus.snoopFanout::underflows               0      0.00%      0.00% # Request fanout histogram (Count)
system.membus.snoopFanout::0                     1009     99.80%     99.80% # Request fanout histogram (Count)
system.membus.snoopFanout::1                        2      0.20%    100.00% # Request fanout histogram (Count)
system.membus.snoopFanout::2                        0      0.00%    100.00% # Request fanout histogram (Count)
system.membus.snoopFanout::overflows                0      0.00%    100.00% # Request fanout histogram (Count)
system.membus.snoopFanout::min_value                0                       # Request fanout histogram (Count)
system.membus.snoopFanout::max_value                1                       # Request fanout histogram (Count)
system.membus.snoopFanout::total                 1011                       # Request fanout histogram (Count)
system.membus.power_state.pwrStateResidencyTicks::UNDEFINED     48983000                       # Cumulative time (in ticks) in various power states (Tick)
system.membus.reqLayer0.occupancy             3005000                       # Layer occupancy (ticks) (Tick)
system.membus.reqLayer0.utilization               0.1                       # Layer utilization (Ratio)
system.membus.respLayer1.occupancy            3577750                       # Layer occupancy (ticks) (Tick)
system.membus.respLayer1.utilization              0.1                       # Layer utilization (Ratio)
system.membus.respLayer2.occupancy            1730500                       # Layer occupancy (ticks) (Tick)
system.membus.respLayer2.utilization              0.0                       # Layer utilization (Ratio)
system.membus.snoop_filter.totRequests           1457                       # Total number of requests made to the snoop filter. (Count)
system.membus.snoop_filter.hitSingleRequests          447                       # Number of requests hitting in the snoop filter with a single holder of the requested data. (Count)
system.membus.snoop_filter.hitMultiRequests            1                       # Number of requests hitting in the snoop filter with multiple (>1) holders of the requested data. (Count)
system.membus.snoop_filter.totSnoops                0                       # Total number of snoops made to the snoop filter. (Count)
system.membus.snoop_filter.hitSingleSnoops            0                       # Number of snoops hitting in the snoop filter with a single holder of the requested data. (Count)
system.membus.snoop_filter.hitMultiSnoops            0                       # Number of snoops hitting in the snoop filter with multiple (>1) holders of the requested data. (Count)
system.voltage_domain.voltage                       1                       # Voltage in Volts (Volt)
system.workload.inst.arm                            0                       # number of arm instructions executed (Count)
system.workload.inst.quiesce                        0                       # number of quiesce instructions executed (Count)

---------- End Simulation Statistics   ----------
