
---------- Begin Simulation Statistics ----------
simSeconds                                   0.000048                       # Number of seconds simulated (Second)
simTicks                                     47614000                       # Number of ticks simulated (Tick)
finalTick                                    47614000                       # Number of ticks from beginning of simulation (restored from checkpoints and never reset) (Tick)
simFreq                                  1000000000000                       # The number of ticks per simulated second ((Tick/Second))
hostSeconds                                      0.14                       # Real time elapsed on the host (Second)
hostTickRate                                352043969                       # The number of ticks simulated per host second (ticks/s) ((Tick/Second))
hostMemory                                     672460                       # Number of bytes of host memory used (Byte)
simInsts                                        69764                       # Number of instructions simulated (Count)
simOps                                          77104                       # Number of ops (including micro ops) simulated (Count)
hostInstRate                                   515630                       # Simulator instruction rate (inst/s) ((Count/Second))
hostOpRate                                     569864                       # Simulator op (including micro ops) rate (op/s) ((Count/Second))
system.clk_domain.clock                          1000                       # Clock period in ticks (Tick)
system.cpu.numCycles                            95229                       # Number of cpu cycles simulated (Cycle)
system.cpu.numWorkItemsStarted                      0                       # Number of work items this cpu started (Count)
system.cpu.numWorkItemsCompleted                    0                       # Number of work items this cpu completed (Count)
system.cpu.instsAdded                           95567                       # Number of instructions added to the IQ (excludes non-spec) (Count)
system.cpu.nonSpecInstsAdded                      103                       # Number of non-speculative instructions added to the IQ (Count)
system.cpu.instsIssued                          90416                       # Number of instructions issued (Count)
system.cpu.squashedInstsIssued                    145                       # Number of squashed instructions issued (Count)
system.cpu.squashedInstsExamined                18565                       # Number of squashed instructions iterated over during squash; mainly for profiling (Count)
system.cpu.squashedOperandsExamined             11206                       # Number of squashed operands that are examined and possibly removed from graph (Count)
system.cpu.squashedNonSpecRemoved                  28                       # Number of squashed non-spec instructions that were removed (Count)
system.cpu.numIssuedDist::samples               53157                       # Number of insts issued each cycle (Count)
system.cpu.numIssuedDist::mean               1.700924                       # Number of insts issued each cycle (Count)
system.cpu.numIssuedDist::stdev              2.080448                       # Number of insts issued each cycle (Count)
system.cpu.numIssuedDist::underflows                0      0.00%      0.00% # Number of insts issued each cycle (Count)
system.cpu.numIssuedDist::0                     24892     46.83%     46.83% # Number of insts issued each cycle (Count)
system.cpu.numIssuedDist::1                      6013     11.31%     58.14% # Number of insts issued each cycle (Count)
system.cpu.numIssuedDist::2                      5662     10.65%     68.79% # Number of insts issued each cycle (Count)
system.cpu.numIssuedDist::3                      5511     10.37%     79.16% # Number of insts issued each cycle (Count)
system.cpu.numIssuedDist::4                      4639      8.73%     87.88% # Number of insts issued each cycle (Count)
system.cpu.numIssuedDist::5                      3163      5.95%     93.84% # Number of insts issued each cycle (Count)
system.cpu.numIssuedDist::6                      1596      3.00%     96.84% # Number of insts issued each cycle (Count)
system.cpu.numIssuedDist::7                       849      1.60%     98.43% # Number of insts issued each cycle (Count)
system.cpu.numIssuedDist::8                       832      1.57%    100.00% # Number of insts issued each cycle (Count)
system.cpu.numIssuedDist::overflows                 0      0.00%    100.00% # Number of insts issued each cycle (Count)
system.cpu.numIssuedDist::min_value                 0                       # Number of insts issued each cycle (Count)
system.cpu.numIssuedDist::max_value                 8                       # Number of insts issued each cycle (Count)
system.cpu.numIssuedDist::total                 53157                       # Number of insts issued each cycle (Count)
system.cpu.statFuBusy::No_OpClass                   0      0.00%      0.00% # attempts to use FU when none available (Count)
system.cpu.statFuBusy::IntAlu                     390     30.30%     30.30% # attempts to use FU when none available (Count)
system.cpu.statFuBusy::IntMult                      0      0.00%     30.30% # attempts to use FU when none available (Count)
system.cpu.statFuBusy::IntDiv                       0      0.00%     30.30% # attempts to use FU when none available (Count)
system.cpu.statFuBusy::FloatAdd                     0      0.00%     30.30% # attempts to use FU when none available (Count)
system.cpu.statFuBusy::FloatCmp                     0      0.00%     30.30% # attempts to use FU when none available (Count)
system.cpu.statFuBusy::FloatCvt                     0      0.00%     30.30% # attempts to use FU when none available (Count)
system.cpu.statFuBusy::FloatMult                    0      0.00%     30.30% # attempts to use FU when none available (Count)
system.cpu.statFuBusy::FloatMultAcc                 0      0.00%     30.30% # attempts to use FU when none available (Count)
system.cpu.statFuBusy::FloatDiv                     0      0.00%     30.30% # attempts to use FU when none available (Count)
system.cpu.statFuBusy::FloatMisc                    0      0.00%     30.30% # attempts to use FU when none available (Count)
system.cpu.statFuBusy::FloatSqrt                    0      0.00%     30.30% # attempts to use FU when none available (Count)
system.cpu.statFuBusy::SimdAdd                      0      0.00%     30.30% # attempts to use FU when none available (Count)
system.cpu.statFuBusy::SimdAddAcc                   0      0.00%     30.30% # attempts to use FU when none available (Count)
system.cpu.statFuBusy::SimdAlu                      0      0.00%     30.30% # attempts to use FU when none available (Count)
system.cpu.statFuBusy::SimdCmp                      2      0.16%     30.46% # attempts to use FU when none available (Count)
system.cpu.statFuBusy::SimdCvt                      0      0.00%     30.46% # attempts to use FU when none available (Count)
system.cpu.statFuBusy::SimdMisc                     0      0.00%     30.46% # attempts to use FU when none available (Count)
system.cpu.statFuBusy::SimdMult                     0      0.00%     30.46% # attempts to use FU when none available (Count)
system.cpu.statFuBusy::SimdMultAcc                  0      0.00%     30.46% # attempts to use FU when none available (Count)
system.cpu.statFuBusy::SimdShift                    0      0.00%     30.46% # attempts to use FU when none available (Count)
system.cpu.statFuBusy::SimdShiftAcc                 0      0.00%     30.46% # attempts to use FU when none available (Count)
system.cpu.statFuBusy::SimdDiv                      0      0.00%     30.46% # attempts to use FU when none available (Count)
system.cpu.statFuBusy::SimdSqrt                     0      0.00%     30.46% # attempts to use FU when none available (Count)
system.cpu.statFuBusy::SimdFloatAdd                 0      0.00%     30.46% # attempts to use FU when none available (Count)
system.cpu.statFuBusy::SimdFloatAlu                 0      0.00%     30.46% # attempts to use FU when none available (Count)
system.cpu.statFuBusy::SimdFloatCmp                 0      0.00%     30.46% # attempts to use FU when none available (Count)
system.cpu.statFuBusy::SimdFloatCvt                 0      0.00%     30.46% # attempts to use FU when none available (Count)
system.cpu.statFuBusy::SimdFloatDiv                 0      0.00%     30.46% # attempts to use FU when none available (Count)
system.cpu.statFuBusy::SimdFloatMisc                0      0.00%     30.46% # attempts to use FU when none available (Count)
system.cpu.statFuBusy::SimdFloatMult                0      0.00%     30.46% # attempts to use FU when none available (Count)
system.cpu.statFuBusy::SimdFloatMultAcc             0      0.00%     30.46% # attempts to use FU when none available (Count)
system.cpu.statFuBusy::SimdFloatSqrt                0      0.00%     30.46% # attempts to use FU when none available (Count)
system.cpu.statFuBusy::SimdReduceAdd                0      0.00%     30.46% # attempts to use FU when none available (Count)
system.cpu.statFuBusy::SimdReduceAlu                0      0.00%     30.46% # attempts to use FU when none available (Count)
system.cpu.statFuBusy::SimdReduceCmp                0      0.00%     30.46% # attempts to use FU when none available (Count)
system.cpu.statFuBusy::SimdFloatReduceAdd            0      0.00%     30.46% # attempts to use FU when none available (Count)
system.cpu.statFuBusy::SimdFloatReduceCmp            0      0.00%     30.46% # attempts to use FU when none available (Count)
system.cpu.statFuBusy::SimdAes                      0      0.00%     30.46% # attempts to use FU when none available (Count)
system.cpu.statFuBusy::SimdAesMix                   0      0.00%     30.46% # attempts to use FU when none available (Count)
system.cpu.statFuBusy::SimdSha1Hash                 0      0.00%     30.46% # attempts to use FU when none available (Count)
system.cpu.statFuBusy::SimdSha1Hash2                0      0.00%     30.46% # attempts to use FU when none available (Count)
system.cpu.statFuBusy::SimdSha256Hash               0      0.00%     30.46% # attempts to use FU when none available (Count)
system.cpu.statFuBusy::SimdSha256Hash2              0      0.00%     30.46% # attempts to use FU when none available (Count)
system.cpu.statFuBusy::SimdShaSigma2                0      0.00%     30.46% # attempts to use FU when none available (Count)
system.cpu.statFuBusy::SimdShaSigma3                0      0.00%     30.46% # attempts to use FU when none available (Count)
system.cpu.statFuBusy::SimdPredAlu                  0      0.00%     30.46% # attempts to use FU when none available (Count)
system.cpu.statFuBusy::MemRead                    398     30.92%     61.38% # attempts to use FU when none available (Count)
system.cpu.statFuBusy::MemWrite                   497     38.62%    100.00% # attempts to use FU when none available (Count)
system.cpu.statFuBusy::FloatMemRead                 0      0.00%    100.00% # attempts to use FU when none available (Count)
system.cpu.statFuBusy::FloatMemWrite                0      0.00%    100.00% # attempts to use FU when none available (Count)
system.cpu.statFuBusy::IprAccess                    0      0.00%    100.00% # attempts to use FU when none available (Count)
system.cpu.statFuBusy::InstPrefetch                 0      0.00%    100.00% # attempts to use FU when none available (Count)
system.cpu.statIssuedInstType_0::No_OpClass          130      0.14%      0.14% # Number of instructions issued per FU type, per thread (Count)
system.cpu.statIssuedInstType_0::IntAlu         59896     66.24%     66.39% # Number of instructions issued per FU type, per thread (Count)
system.cpu.statIssuedInstType_0::IntMult          216      0.24%     66.63% # Number of instructions issued per FU type, per thread (Count)
system.cpu.statIssuedInstType_0::IntDiv             3      0.00%     66.63% # Number of instructions issued per FU type, per thread (Count)
system.cpu.statIssuedInstType_0::FloatAdd            0      0.00%     66.63% # Number of instructions issued per FU type, per thread (Count)
system.cpu.statIssuedInstType_0::FloatCmp            0      0.00%     66.63% # Number of instructions issued per FU type, per thread (Count)
system.cpu.statIssuedInstType_0::FloatCvt            0      0.00%     66.63% # Number of instructions issued per FU type, per thread (Count)
system.cpu.statIssuedInstType_0::FloatMult            0      0.00%     66.63% # Number of instructions issued per FU type, per thread (Count)
system.cpu.statIssuedInstType_0::FloatMultAcc            0      0.00%     66.63% # Number of instructions issued per FU type, per thread (Count)
system.cpu.statIssuedInstType_0::FloatDiv            0      0.00%     66.63% # Number of instructions issued per FU type, per thread (Count)
system.cpu.statIssuedInstType_0::FloatMisc            0      0.00%     66.63% # Number of instructions issued per FU type, per thread (Count)
system.cpu.statIssuedInstType_0::FloatSqrt            0      0.00%     66.63% # Number of instructions issued per FU type, per thread (Count)
system.cpu.statIssuedInstType_0::SimdAdd          240      0.27%     66.90% # Number of instructions issued per FU type, per thread (Count)
system.cpu.statIssuedInstType_0::SimdAddAcc            0      0.00%     66.90% # Number of instructions issued per FU type, per thread (Count)
system.cpu.statIssuedInstType_0::SimdAlu          457      0.51%     67.40% # Number of instructions issued per FU type, per thread (Count)
system.cpu.statIssuedInstType_0::SimdCmp          448      0.50%     67.90% # Number of instructions issued per FU type, per thread (Count)
system.cpu.statIssuedInstType_0::SimdCvt            0      0.00%     67.90% # Number of instructions issued per FU type, per thread (Count)
system.cpu.statIssuedInstType_0::SimdMisc          337      0.37%     68.27% # Number of instructions issued per FU type, per thread (Count)
system.cpu.statIssuedInstType_0::SimdMult            0      0.00%     68.27% # Number of instructions issued per FU type, per thread (Count)
system.cpu.statIssuedInstType_0::SimdMultAcc            0      0.00%     68.27% # Number of instructions issued per FU type, per thread (Count)
system.cpu.statIssuedInstType_0::SimdShift            0      0.00%     68.27% # Number of instructions issued per FU type, per thread (Count)
system.cpu.statIssuedInstType_0::SimdShiftAcc            0      0.00%     68.27% # Number of instructions issued per FU type, per thread (Count)
system.cpu.statIssuedInstType_0::SimdDiv            0      0.00%     68.27% # Number of instructions issued per FU type, per thread (Count)
system.cpu.statIssuedInstType_0::SimdSqrt            0      0.00%     68.27% # Number of instructions issued per FU type, per thread (Count)
system.cpu.statIssuedInstType_0::SimdFloatAdd            0      0.00%     68.27% # Number of instructions issued per FU type, per thread (Count)
system.cpu.statIssuedInstType_0::SimdFloatAlu            0      0.00%     68.27% # Number of instructions issued per FU type, per thread (Count)
system.cpu.statIssuedInstType_0::SimdFloatCmp            0      0.00%     68.27% # Number of instructions issued per FU type, per thread (Count)
system.cpu.statIssuedInstType_0::SimdFloatCvt            0      0.00%     68.27% # Number of instructions issued per FU type, per thread (Count)
system.cpu.statIssuedInstType_0::SimdFloatDiv            0      0.00%     68.27% # Number of instructions issued per FU type, per thread (Count)
system.cpu.statIssuedInstType_0::SimdFloatMisc            0      0.00%     68.27% # Number of instructions issued per FU type, per thread (Count)
system.cpu.statIssuedInstType_0::SimdFloatMult            0      0.00%     68.27% # Number of instructions issued per FU type, per thread (Count)
system.cpu.statIssuedInstType_0::SimdFloatMultAcc            0      0.00%     68.27% # Number of instructions issued per FU type, per thread (Count)
system.cpu.statIssuedInstType_0::SimdFloatSqrt            0      0.00%     68.27% # Number of instructions issued per FU type, per thread (Count)
system.cpu.statIssuedInstType_0::SimdReduceAdd            0      0.00%     68.27% # Number of instructions issued per FU type, per thread (Count)
system.cpu.statIssuedInstType_0::SimdReduceAlu            0      0.00%     68.27% # Number of instructions issued per FU type, per thread (Count)
system.cpu.statIssuedInstType_0::SimdReduceCmp            0      0.00%     68.27% # Number of instructions issued per FU type, per thread (Count)
system.cpu.statIssuedInstType_0::SimdFloatReduceAdd            0      0.00%     68.27% # Number of instructions issued per FU type, per thread (Count)
system.cpu.statIssuedInstType_0::SimdFloatReduceCmp            0      0.00%     68.27% # Number of instructions issued per FU type, per thread (Count)
system.cpu.statIssuedInstType_0::SimdAes            0      0.00%     68.27% # Number of instructions issued per FU type, per thread (Count)
system.cpu.statIssuedInstType_0::SimdAesMix            0      0.00%     68.27% # Number of instructions issued per FU type, per thread (Count)
system.cpu.statIssuedInstType_0::SimdSha1Hash            0      0.00%     68.27% # Number of instructions issued per FU type, per thread (Count)
system.cpu.statIssuedInstType_0::SimdSha1Hash2            0      0.00%     68.27% # Number of instructions issued per FU type, per thread (Count)
system.cpu.statIssuedInstType_0::SimdSha256Hash            0      0.00%     68.27% # Number of instructions issued per FU type, per thread (Count)
system.cpu.statIssuedInstType_0::SimdSha256Hash2            0      0.00%     68.27% # Number of instructions issued per FU type, per thread (Count)
system.cpu.statIssuedInstType_0::SimdShaSigma2            0      0.00%     68.27% # Number of instructions issued per FU type, per thread (Count)
system.cpu.statIssuedInstType_0::SimdShaSigma3            0      0.00%     68.27% # Number of instructions issued per FU type, per thread (Count)
system.cpu.statIssuedInstType_0::SimdPredAlu            0      0.00%     68.27% # Number of instructions issued per FU type, per thread (Count)
system.cpu.statIssuedInstType_0::MemRead        18440     20.39%     88.66% # Number of instructions issued per FU type, per thread (Count)
system.cpu.statIssuedInstType_0::MemWrite        10249     11.34%    100.00% # Number of instructions issued per FU type, per thread (Count)
system.cpu.statIssuedInstType_0::FloatMemRead            0      0.00%    100.00% # Number of instructions issued per FU type, per thread (Count)
system.cpu.statIssuedInstType_0::FloatMemWrite            0      0.00%    100.00% # Number of instructions issued per FU type, per thread (Count)
system.cpu.statIssuedInstType_0::IprAccess            0      0.00%    100.00% # Number of instructions issued per FU type, per thread (Count)
system.cpu.statIssuedInstType_0::InstPrefetch            0      0.00%    100.00% # Number of instructions issued per FU type, per thread (Count)
system.cpu.statIssuedInstType_0::total          90416                       # Number of instructions issued per FU type, per thread (Count)
system.cpu.issueRate                         0.949459                       # Inst issue rate ((Count/Cycle))
system.cpu.fuBusy                                1287                       # FU busy when requested (Count)
system.cpu.fuBusyRate                        0.014234                       # FU busy rate (busy events/executed inst) ((Count/Count))
system.cpu.intInstQueueReads                   230905                       # Number of integer instruction queue reads (Count)
system.cpu.intInstQueueWrites                  111906                       # Number of integer instruction queue writes (Count)
system.cpu.intInstQueueWakeupAccesses           85092                       # Number of integer instruction queue wakeup accesses (Count)
system.cpu.fpInstQueueReads                         0                       # Number of floating instruction queue reads (Count)
system.cpu.fpInstQueueWrites                        0                       # Number of floating instruction queue writes (Count)
system.cpu.fpInstQueueWakeupAccesses                0                       # Number of floating instruction queue wakeup accesses (Count)
system.cpu.vecInstQueueReads                     4516                       # Number of vector instruction queue reads (Count)
system.cpu.vecInstQueueWrites                    2478                       # Number of vector instruction queue writes (Count)
system.cpu.vecInstQueueWakeupAccesses            2177                       # Number of vector instruction queue wakeup accesses (Count)
system.cpu.intAluAccesses                       89397                       # Number of integer alu accesses (Count)
system.cpu.fpAluAccesses                            0                       # Number of floating point alu accesses (Count)
system.cpu.vecAluAccesses                        2176                       # Number of vector alu accesses (Count)
system.cpu.numInsts                             88975                       # Number of executed instructions (Count)
system.cpu.numLoadInsts                         18084                       # Number of load instructions executed (Count)
system.cpu.numSquashedInsts                      1441                       # Number of squashed instructions skipped in execute (Count)
system.cpu.numSwp                                   0                       # Number of swp insts executed (Count)
system.cpu.numNop                                 318                       # Number of nop insts executed (Count)
system.cpu.numRefs                              28084                       # Number of memory reference insts executed (Count)
system.cpu.numBranches                          11158                       # Number of branches executed (Count)
system.cpu.numStoreInsts                        10000                       # Number of stores executed (Count)
system.cpu.numRate                           0.934327                       # Inst execution rate ((Count/Cycle))
system.cpu.timesIdled                             472                       # Number of times that the entire CPU went into an idle state and unscheduled itself (Count)
system.cpu.idleCycles                           42072                       # Total number of cycles that the CPU has spent unscheduled due to idling (Cycle)
system.cpu.committedInsts                       69764                       # Number of Instructions Simulated (Count)
system.cpu.committedOps                         77104                       # Number of Ops (including micro ops) Simulated (Count)
system.cpu.cpi                               1.365016                       # CPI: Cycles Per Instruction ((Cycle/Count))
system.cpu.totalCpi                          1.365016                       # CPI: Total CPI of All Threads ((Cycle/Count))
system.cpu.ipc                               0.732592                       # IPC: Instructions Per Cycle ((Count/Cycle))
system.cpu.totalIpc                          0.732592                       # IPC: Total IPC of All Threads ((Count/Cycle))
system.cpu.intRegfileReads                     100856                       # Number of integer regfile reads (Count)
system.cpu.intRegfileWrites                     67529                       # Number of integer regfile writes (Count)
system.cpu.vecRegfileReads                       2887                       # number of vector regfile reads (Count)
system.cpu.vecRegfileWrites                      1807                       # number of vector regfile writes (Count)
system.cpu.ccRegfileReads                       18033                       # number of cc regfile reads (Count)
system.cpu.ccRegfileWrites                      17241                       # number of cc regfile writes (Count)
system.cpu.miscRegfileReads                    164758                       # number of misc regfile reads (Count)
system.cpu.miscRegfileWrites                       45                       # number of misc regfile writes (Count)
system.cpu.MemDepUnit__0.insertedLoads          18953                       # Number of loads inserted to the mem dependence unit. (Count)
system.cpu.MemDepUnit__0.insertedStores         11073                       # Number of stores inserted to the mem dependence unit. (Count)
system.cpu.MemDepUnit__0.conflictingLoads         2755                       # Number of conflicting loads. (Count)
system.cpu.MemDepUnit__0.conflictingStores          996                       # Number of conflicting stores. (Count)
system.cpu.MemDepUnit__1.insertedLoads              0                       # Number of loads inserted to the mem dependence unit. (Count)
system.cpu.MemDepUnit__1.insertedStores             0                       # Number of stores inserted to the mem dependence unit. (Count)
system.cpu.MemDepUnit__1.conflictingLoads            0                       # Number of conflicting loads. (Count)
system.cpu.MemDepUnit__1.conflictingStores            0                       # Number of conflicting stores. (Count)
system.cpu.MemDepUnit__2.insertedLoads              0                       # Number of loads inserted to the mem dependence unit. (Count)
system.cpu.MemDepUnit__2.insertedStores             0                       # Number of stores inserted to the mem dependence unit. (Count)
system.cpu.MemDepUnit__2.conflictingLoads            0                       # Number of conflicting loads. (Count)
system.cpu.MemDepUnit__2.conflictingStores            0                       # Number of conflicting stores. (Count)
system.cpu.MemDepUnit__3.insertedLoads              0                       # Number of loads inserted to the mem dependence unit. (Count)
system.cpu.MemDepUnit__3.insertedStores             0                       # Number of stores inserted to the mem dependence unit. (Count)
system.cpu.MemDepUnit__3.conflictingLoads            0                       # Number of conflicting loads. (Count)
system.cpu.MemDepUnit__3.conflictingStores            0                       # Number of conflicting stores. (Count)
system.cpu.branchPred.lookups                   14563                       # Number of BP lookups (Count)
system.cpu.branchPred.condPredicted              9746                       # Number of conditional branches predicted (Count)
system.cpu.branchPred.condIncorrect              1203                       # Number of conditional branches incorrect (Count)
system.cpu.branchPred.BTBLookups                 7132                       # Number of BTB lookups (Count)
system.cpu.branchPred.BTBHits                    5872                       # Number of BTB hits (Count)
system.cpu.branchPred.BTBHitRatio            0.823331                       # BTB Hit Ratio (Ratio)
system.cpu.branchPred.RASUsed                    1671                       # Number of times the RAS was used to get a target. (Count)
system.cpu.branchPred.RASIncorrect                  1                       # Number of incorrect RAS predictions. (Count)
system.cpu.branchPred.indirectLookups             317                       # Number of indirect predictor lookups. (Count)
system.cpu.branchPred.indirectHits                120                       # Number of indirect target hits. (Count)
system.cpu.branchPred.indirectMisses              197                       # Number of indirect misses. (Count)
system.cpu.branchPred.indirectMispredicted           69                       # Number of mispredicted indirect branches. (Count)
system.cpu.commit.commitSquashedInsts           18629                       # The number of squashed insts skipped by commit (Count)
system.cpu.commit.commitNonSpecStalls              75                       # The number of times commit has been forced to stall to communicate backwards (Count)
system.cpu.commit.branchMispredicts               864                       # The number of times a branch was mispredicted (Count)
system.cpu.commit.numCommittedDist::samples        50146                       # Number of insts commited each cycle (Count)
system.cpu.commit.numCommittedDist::mean     1.542077                       # Number of insts commited each cycle (Count)
system.cpu.commit.numCommittedDist::stdev     2.424152                       # Number of insts commited each cycle (Count)
system.cpu.commit.numCommittedDist::underflows            0      0.00%      0.00% # Number of insts commited each cycle (Count)
system.cpu.commit.numCommittedDist::0           27054     53.95%     53.95% # Number of insts commited each cycle (Count)
system.cpu.commit.numCommittedDist::1            8712     17.37%     71.32% # Number of insts commited each cycle (Count)
system.cpu.commit.numCommittedDist::2            3665      7.31%     78.63% # Number of insts commited each cycle (Count)
system.cpu.commit.numCommittedDist::3            1790      3.57%     82.20% # Number of insts commited each cycle (Count)
system.cpu.commit.numCommittedDist::4            2046      4.08%     86.28% # Number of insts commited each cycle (Count)
system.cpu.commit.numCommittedDist::5            1432      2.86%     89.14% # Number of insts commited each cycle (Count)
system.cpu.commit.numCommittedDist::6            1172      2.34%     91.47% # Number of insts commited each cycle (Count)
system.cpu.commit.numCommittedDist::7             659      1.31%     92.79% # Number of insts commited each cycle (Count)
system.cpu.commit.numCommittedDist::8            3616      7.21%    100.00% # Number of insts commited each cycle (Count)
system.cpu.commit.numCommittedDist::overflows            0      0.00%    100.00% # Number of insts commited each cycle (Count)
system.cpu.commit.numCommittedDist::min_value            0                       # Number of insts commited each cycle (Count)
system.cpu.commit.numCommittedDist::max_value            8                       # Number of insts commited each cycle (Count)
system.cpu.commit.numCommittedDist::total        50146                       # Number of insts commited each cycle (Count)
system.cpu.commit.instsCommitted                69989                       # Number of instructions committed (Count)
system.cpu.commit.opsCommitted                  77329                       # Number of ops (including micro ops) committed (Count)
system.cpu.commit.memRefs                       24400                       # Number of memory references committed (Count)
system.cpu.commit.loads                         15237                       # Number of loads committed (Count)
system.cpu.commit.amos                             14                       # Number of atomic instructions committed (Count)
system.cpu.commit.membars                          18                       # Number of memory barriers committed (Count)
system.cpu.commit.branches                       9758                       # Number of branches committed (Count)
system.cpu.commit.vectorInstructions             2082                       # Number of committed Vector instructions. (Count)
system.cpu.commit.floating                          0                       # Number of committed floating point instructions. (Count)
system.cpu.commit.integer                       70686                       # Number of committed integer instructions. (Count)
system.cpu.commit.functionCalls                  1108                       # Number of function calls committed. (Count)
system.cpu.commit.committedInstType_0::No_OpClass          125      0.16%      0.16% # Class of committed instruction (Count)
system.cpu.commit.committedInstType_0::IntAlu        51191     66.20%     66.36% # Class of committed instruction (Count)
system.cpu.commit.committedInstType_0::IntMult          197      0.25%     66.62% # Class of committed instruction (Count)
system.cpu.commit.committedInstType_0::IntDiv            3      0.00%     66.62% # Class of committed instruction (Count)
system.cpu.commit.committedInstType_0::FloatAdd            0      0.00%     66.62% # Class of committed instruction (Count)
system.cpu.commit.committedInstType_0::FloatCmp            0      0.00%     66.62% # Class of committed instruction (Count)
system.cpu.commit.committedInstType_0::FloatCvt            0      0.00%     66.62% # Class of committed instruction (Count)
system.cpu.commit.committedInstType_0::FloatMult            0      0.00%     66.62% # Class of committed instruction (Count)
system.cpu.commit.committedInstType_0::FloatMultAcc            0      0.00%     66.62% # Class of committed instruction (Count)
system.cpu.commit.committedInstType_0::FloatDiv            0      0.00%     66.62% # Class of committed instruction (Count)
system.cpu.commit.committedInstType_0::FloatMisc            0      0.00%     66.62% # Class of committed instruction (Count)
system.cpu.commit.committedInstType_0::FloatSqrt            0      0.00%     66.62% # Class of committed instruction (Count)
system.cpu.commit.committedInstType_0::SimdAdd          228      0.29%     66.91% # Class of committed instruction (Count)
system.cpu.commit.committedInstType_0::SimdAddAcc            0      0.00%     66.91% # Class of committed instruction (Count)
system.cpu.commit.committedInstType_0::SimdAlu          435      0.56%     67.48% # Class of committed instruction (Count)
system.cpu.commit.committedInstType_0::SimdCmp          428      0.55%     68.03% # Class of committed instruction (Count)
system.cpu.commit.committedInstType_0::SimdCvt            0      0.00%     68.03% # Class of committed instruction (Count)
system.cpu.commit.committedInstType_0::SimdMisc          322      0.42%     68.45% # Class of committed instruction (Count)
system.cpu.commit.committedInstType_0::SimdMult            0      0.00%     68.45% # Class of committed instruction (Count)
system.cpu.commit.committedInstType_0::SimdMultAcc            0      0.00%     68.45% # Class of committed instruction (Count)
system.cpu.commit.committedInstType_0::SimdShift            0      0.00%     68.45% # Class of committed instruction (Count)
system.cpu.commit.committedInstType_0::SimdShiftAcc            0      0.00%     68.45% # Class of committed instruction (Count)
system.cpu.commit.committedInstType_0::SimdDiv            0      0.00%     68.45% # Class of committed instruction (Count)
system.cpu.commit.committedInstType_0::SimdSqrt            0      0.00%     68.45% # Class of committed instruction (Count)
system.cpu.commit.committedInstType_0::SimdFloatAdd            0      0.00%     68.45% # Class of committed instruction (Count)
system.cpu.commit.committedInstType_0::SimdFloatAlu            0      0.00%     68.45% # Class of committed instruction (Count)
system.cpu.commit.committedInstType_0::SimdFloatCmp            0      0.00%     68.45% # Class of committed instruction (Count)
system.cpu.commit.committedInstType_0::SimdFloatCvt            0      0.00%     68.45% # Class of committed instruction (Count)
system.cpu.commit.committedInstType_0::SimdFloatDiv            0      0.00%     68.45% # Class of committed instruction (Count)
system.cpu.commit.committedInstType_0::SimdFloatMisc            0      0.00%     68.45% # Class of committed instruction (Count)
system.cpu.commit.committedInstType_0::SimdFloatMult            0      0.00%     68.45% # Class of committed instruction (Count)
system.cpu.commit.committedInstType_0::SimdFloatMultAcc            0      0.00%     68.45% # Class of committed instruction (Count)
system.cpu.commit.committedInstType_0::SimdFloatSqrt            0      0.00%     68.45% # Class of committed instruction (Count)
system.cpu.commit.committedInstType_0::SimdReduceAdd            0      0.00%     68.45% # Class of committed instruction (Count)
system.cpu.commit.committedInstType_0::SimdReduceAlu            0      0.00%     68.45% # Class of committed instruction (Count)
system.cpu.commit.committedInstType_0::SimdReduceCmp            0      0.00%     68.45% # Class of committed instruction (Count)
system.cpu.commit.committedInstType_0::SimdFloatReduceAdd            0      0.00%     68.45% # Class of committed instruction (Count)
system.cpu.commit.committedInstType_0::SimdFloatReduceCmp            0      0.00%     68.45% # Class of committed instruction (Count)
system.cpu.commit.committedInstType_0::SimdAes            0      0.00%     68.45% # Class of committed instruction (Count)
system.cpu.commit.committedInstType_0::SimdAesMix            0      0.00%     68.45% # Class of committed instruction (Count)
system.cpu.commit.committedInstType_0::SimdSha1Hash            0      0.00%     68.45% # Class of committed instruction (Count)
system.cpu.commit.committedInstType_0::SimdSha1Hash2            0      0.00%     68.45% # Class of committed instruction (Count)
system.cpu.commit.committedInstType_0::SimdSha256Hash            0      0.00%     68.45% # Class of committed instruction (Count)
system.cpu.commit.committedInstType_0::SimdSha256Hash2            0      0.00%     68.45% # Class of committed instruction (Count)
system.cpu.commit.committedInstType_0::SimdShaSigma2            0      0.00%     68.45% # Class of committed instruction (Count)
system.cpu.commit.committedInstType_0::SimdShaSigma3            0      0.00%     68.45% # Class of committed instruction (Count)
system.cpu.commit.committedInstType_0::SimdPredAlu            0      0.00%     68.45% # Class of committed instruction (Count)
system.cpu.commit.committedInstType_0::MemRead        15237     19.70%     88.15% # Class of committed instruction (Count)
system.cpu.commit.committedInstType_0::MemWrite         9163     11.85%    100.00% # Class of committed instruction (Count)
system.cpu.commit.committedInstType_0::FloatMemRead            0      0.00%    100.00% # Class of committed instruction (Count)
system.cpu.commit.committedInstType_0::FloatMemWrite            0      0.00%    100.00% # Class of committed instruction (Count)
system.cpu.commit.committedInstType_0::IprAccess            0      0.00%    100.00% # Class of committed instruction (Count)
system.cpu.commit.committedInstType_0::InstPrefetch            0      0.00%    100.00% # Class of committed instruction (Count)
system.cpu.commit.committedInstType_0::total        77329                       # Class of committed instruction (Count)
system.cpu.commit.commitEligibleSamples          3616                       # number cycles where commit BW limit reached (Cycle)
system.cpu.dcache.demandHits::cpu.data          23943                       # number of demand (read+write) hits (Count)
system.cpu.dcache.demandHits::total             23943                       # number of demand (read+write) hits (Count)
system.cpu.dcache.overallHits::cpu.data         23945                       # number of overall hits (Count)
system.cpu.dcache.overallHits::total            23945                       # number of overall hits (Count)
system.cpu.dcache.demandMisses::cpu.data          816                       # number of demand (read+write) misses (Count)
system.cpu.dcache.demandMisses::total             816                       # number of demand (read+write) misses (Count)
system.cpu.dcache.overallMisses::cpu.data          820                       # number of overall misses (Count)
system.cpu.dcache.overallMisses::total            820                       # number of overall misses (Count)
system.cpu.dcache.demandMissLatency::cpu.data     46807476                       # number of demand (read+write) miss ticks (Tick)
system.cpu.dcache.demandMissLatency::total     46807476                       # number of demand (read+write) miss ticks (Tick)
system.cpu.dcache.overallMissLatency::cpu.data     46807476                       # number of overall miss ticks (Tick)
system.cpu.dcache.overallMissLatency::total     46807476                       # number of overall miss ticks (Tick)
system.cpu.dcache.demandAccesses::cpu.data        24759                       # number of demand (read+write) accesses (Count)
system.cpu.dcache.demandAccesses::total         24759                       # number of demand (read+write) accesses (Count)
system.cpu.dcache.overallAccesses::cpu.data        24765                       # number of overall (read+write) accesses (Count)
system.cpu.dcache.overallAccesses::total        24765                       # number of overall (read+write) accesses (Count)
system.cpu.dcache.demandMissRate::cpu.data     0.032958                       # miss rate for demand accesses (Ratio)
system.cpu.dcache.demandMissRate::total      0.032958                       # miss rate for demand accesses (Ratio)
system.cpu.dcache.overallMissRate::cpu.data     0.033111                       # miss rate for overall accesses (Ratio)
system.cpu.dcache.overallMissRate::total     0.033111                       # miss rate for overall accesses (Ratio)
system.cpu.dcache.demandAvgMissLatency::cpu.data 57362.102941                       # average overall miss latency ((Cycle/Count))
system.cpu.dcache.demandAvgMissLatency::total 57362.102941                       # average overall miss latency ((Cycle/Count))
system.cpu.dcache.overallAvgMissLatency::cpu.data 57082.287805                       # average overall miss latency ((Cycle/Count))
system.cpu.dcache.overallAvgMissLatency::total 57082.287805                       # average overall miss latency ((Cycle/Count))
system.cpu.dcache.blockedCycles::no_mshrs         1429                       # number of cycles access was blocked (Cycle)
system.cpu.dcache.blockedCycles::no_targets            0                       # number of cycles access was blocked (Cycle)
system.cpu.dcache.blockedCauses::no_mshrs           52                       # number of times access was blocked (Count)
system.cpu.dcache.blockedCauses::no_targets            0                       # number of times access was blocked (Count)
system.cpu.dcache.avgBlocked::no_mshrs      27.480769                       # average number of cycles each access was blocked ((Cycle/Count))
system.cpu.dcache.avgBlocked::no_targets          nan                       # average number of cycles each access was blocked ((Cycle/Count))
system.cpu.dcache.writebacks::writebacks           30                       # number of writebacks (Count)
system.cpu.dcache.writebacks::total                30                       # number of writebacks (Count)
system.cpu.dcache.demandMshrHits::cpu.data          560                       # number of demand (read+write) MSHR hits (Count)
system.cpu.dcache.demandMshrHits::total           560                       # number of demand (read+write) MSHR hits (Count)
system.cpu.dcache.overallMshrHits::cpu.data          560                       # number of overall MSHR hits (Count)
system.cpu.dcache.overallMshrHits::total          560                       # number of overall MSHR hits (Count)
system.cpu.dcache.demandMshrMisses::cpu.data          256                       # number of demand (read+write) MSHR misses (Count)
system.cpu.dcache.demandMshrMisses::total          256                       # number of demand (read+write) MSHR misses (Count)
system.cpu.dcache.overallMshrMisses::cpu.data          260                       # number of overall MSHR misses (Count)
system.cpu.dcache.overallMshrMisses::total          260                       # number of overall MSHR misses (Count)
system.cpu.dcache.demandMshrMissLatency::cpu.data     16561496                       # number of demand (read+write) MSHR miss ticks (Tick)
system.cpu.dcache.demandMshrMissLatency::total     16561496                       # number of demand (read+write) MSHR miss ticks (Tick)
system.cpu.dcache.overallMshrMissLatency::cpu.data     16846996                       # number of overall MSHR miss ticks (Tick)
system.cpu.dcache.overallMshrMissLatency::total     16846996                       # number of overall MSHR miss ticks (Tick)
system.cpu.dcache.demandMshrMissRate::cpu.data     0.010340                       # mshr miss ratio for demand accesses (Ratio)
system.cpu.dcache.demandMshrMissRate::total     0.010340                       # mshr miss ratio for demand accesses (Ratio)
system.cpu.dcache.overallMshrMissRate::cpu.data     0.010499                       # mshr miss ratio for overall accesses (Ratio)
system.cpu.dcache.overallMshrMissRate::total     0.010499                       # mshr miss ratio for overall accesses (Ratio)
system.cpu.dcache.demandAvgMshrMissLatency::cpu.data 64693.343750                       # average overall mshr miss latency ((Cycle/Count))
system.cpu.dcache.demandAvgMshrMissLatency::total 64693.343750                       # average overall mshr miss latency ((Cycle/Count))
system.cpu.dcache.overallAvgMshrMissLatency::cpu.data 64796.138462                       # average overall mshr miss latency ((Cycle/Count))
system.cpu.dcache.overallAvgMshrMissLatency::total 64796.138462                       # average overall mshr miss latency ((Cycle/Count))
system.cpu.dcache.replacements                     66                       # number of replacements (Count)
system.cpu.dcache.LoadLockedReq.hits::cpu.data            6                       # number of LoadLockedReq hits (Count)
system.cpu.dcache.LoadLockedReq.hits::total            6                       # number of LoadLockedReq hits (Count)
system.cpu.dcache.LoadLockedReq.accesses::cpu.data            6                       # number of LoadLockedReq accesses(hits+misses) (Count)
system.cpu.dcache.LoadLockedReq.accesses::total            6                       # number of LoadLockedReq accesses(hits+misses) (Count)
system.cpu.dcache.ReadReq.hits::cpu.data        15346                       # number of ReadReq hits (Count)
system.cpu.dcache.ReadReq.hits::total           15346                       # number of ReadReq hits (Count)
system.cpu.dcache.ReadReq.misses::cpu.data          268                       # number of ReadReq misses (Count)
system.cpu.dcache.ReadReq.misses::total           268                       # number of ReadReq misses (Count)
system.cpu.dcache.ReadReq.missLatency::cpu.data     19067000                       # number of ReadReq miss ticks (Tick)
system.cpu.dcache.ReadReq.missLatency::total     19067000                       # number of ReadReq miss ticks (Tick)
system.cpu.dcache.ReadReq.accesses::cpu.data        15614                       # number of ReadReq accesses(hits+misses) (Count)
system.cpu.dcache.ReadReq.accesses::total        15614                       # number of ReadReq accesses(hits+misses) (Count)
system.cpu.dcache.ReadReq.missRate::cpu.data     0.017164                       # miss rate for ReadReq accesses (Ratio)
system.cpu.dcache.ReadReq.missRate::total     0.017164                       # miss rate for ReadReq accesses (Ratio)
system.cpu.dcache.ReadReq.avgMissLatency::cpu.data 71145.522388                       # average ReadReq miss latency ((Tick/Count))
system.cpu.dcache.ReadReq.avgMissLatency::total 71145.522388                       # average ReadReq miss latency ((Tick/Count))
system.cpu.dcache.ReadReq.mshrHits::cpu.data          131                       # number of ReadReq MSHR hits (Count)
system.cpu.dcache.ReadReq.mshrHits::total          131                       # number of ReadReq MSHR hits (Count)
system.cpu.dcache.ReadReq.mshrMisses::cpu.data          137                       # number of ReadReq MSHR misses (Count)
system.cpu.dcache.ReadReq.mshrMisses::total          137                       # number of ReadReq MSHR misses (Count)
system.cpu.dcache.ReadReq.mshrMissLatency::cpu.data      9860500                       # number of ReadReq MSHR miss ticks (Tick)
system.cpu.dcache.ReadReq.mshrMissLatency::total      9860500                       # number of ReadReq MSHR miss ticks (Tick)
system.cpu.dcache.ReadReq.mshrMissRate::cpu.data     0.008774                       # mshr miss rate for ReadReq accesses (Ratio)
system.cpu.dcache.ReadReq.mshrMissRate::total     0.008774                       # mshr miss rate for ReadReq accesses (Ratio)
system.cpu.dcache.ReadReq.avgMshrMissLatency::cpu.data 71974.452555                       # average ReadReq mshr miss latency ((Tick/Count))
system.cpu.dcache.ReadReq.avgMshrMissLatency::total 71974.452555                       # average ReadReq mshr miss latency ((Tick/Count))
system.cpu.dcache.SoftPFReq.hits::cpu.data            2                       # number of SoftPFReq hits (Count)
system.cpu.dcache.SoftPFReq.hits::total             2                       # number of SoftPFReq hits (Count)
system.cpu.dcache.SoftPFReq.misses::cpu.data            4                       # number of SoftPFReq misses (Count)
system.cpu.dcache.SoftPFReq.misses::total            4                       # number of SoftPFReq misses (Count)
system.cpu.dcache.SoftPFReq.accesses::cpu.data            6                       # number of SoftPFReq accesses(hits+misses) (Count)
system.cpu.dcache.SoftPFReq.accesses::total            6                       # number of SoftPFReq accesses(hits+misses) (Count)
system.cpu.dcache.SoftPFReq.missRate::cpu.data     0.666667                       # miss rate for SoftPFReq accesses (Ratio)
system.cpu.dcache.SoftPFReq.missRate::total     0.666667                       # miss rate for SoftPFReq accesses (Ratio)
system.cpu.dcache.SoftPFReq.mshrMisses::cpu.data            4                       # number of SoftPFReq MSHR misses (Count)
system.cpu.dcache.SoftPFReq.mshrMisses::total            4                       # number of SoftPFReq MSHR misses (Count)
system.cpu.dcache.SoftPFReq.mshrMissLatency::cpu.data       285500                       # number of SoftPFReq MSHR miss ticks (Tick)
system.cpu.dcache.SoftPFReq.mshrMissLatency::total       285500                       # number of SoftPFReq MSHR miss ticks (Tick)
system.cpu.dcache.SoftPFReq.mshrMissRate::cpu.data     0.666667                       # mshr miss rate for SoftPFReq accesses (Ratio)
system.cpu.dcache.SoftPFReq.mshrMissRate::total     0.666667                       # mshr miss rate for SoftPFReq accesses (Ratio)
system.cpu.dcache.SoftPFReq.avgMshrMissLatency::cpu.data        71375                       # average SoftPFReq mshr miss latency ((Tick/Count))
system.cpu.dcache.SoftPFReq.avgMshrMissLatency::total        71375                       # average SoftPFReq mshr miss latency ((Tick/Count))
system.cpu.dcache.StoreCondReq.hits::cpu.data            4                       # number of StoreCondReq hits (Count)
system.cpu.dcache.StoreCondReq.hits::total            4                       # number of StoreCondReq hits (Count)
system.cpu.dcache.StoreCondReq.accesses::cpu.data            4                       # number of StoreCondReq accesses(hits+misses) (Count)
system.cpu.dcache.StoreCondReq.accesses::total            4                       # number of StoreCondReq accesses(hits+misses) (Count)
system.cpu.dcache.SwapReq.hits::cpu.data           14                       # number of SwapReq hits (Count)
system.cpu.dcache.SwapReq.hits::total              14                       # number of SwapReq hits (Count)
system.cpu.dcache.SwapReq.accesses::cpu.data           14                       # number of SwapReq accesses(hits+misses) (Count)
system.cpu.dcache.SwapReq.accesses::total           14                       # number of SwapReq accesses(hits+misses) (Count)
system.cpu.dcache.WriteLineReq.misses::cpu.data            7                       # number of WriteLineReq misses (Count)
system.cpu.dcache.WriteLineReq.misses::total            7                       # number of WriteLineReq misses (Count)
system.cpu.dcache.WriteLineReq.missLatency::cpu.data        74998                       # number of WriteLineReq miss ticks (Tick)
system.cpu.dcache.WriteLineReq.missLatency::total        74998                       # number of WriteLineReq miss ticks (Tick)
system.cpu.dcache.WriteLineReq.accesses::cpu.data            7                       # number of WriteLineReq accesses(hits+misses) (Count)
system.cpu.dcache.WriteLineReq.accesses::total            7                       # number of WriteLineReq accesses(hits+misses) (Count)
system.cpu.dcache.WriteLineReq.missRate::cpu.data            1                       # miss rate for WriteLineReq accesses (Ratio)
system.cpu.dcache.WriteLineReq.missRate::total            1                       # miss rate for WriteLineReq accesses (Ratio)
system.cpu.dcache.WriteLineReq.avgMissLatency::cpu.data        10714                       # average WriteLineReq miss latency ((Tick/Count))
system.cpu.dcache.WriteLineReq.avgMissLatency::total        10714                       # average WriteLineReq miss latency ((Tick/Count))
system.cpu.dcache.WriteLineReq.mshrMisses::cpu.data            7                       # number of WriteLineReq MSHR misses (Count)
system.cpu.dcache.WriteLineReq.mshrMisses::total            7                       # number of WriteLineReq MSHR misses (Count)
system.cpu.dcache.WriteLineReq.mshrMissLatency::cpu.data        67998                       # number of WriteLineReq MSHR miss ticks (Tick)
system.cpu.dcache.WriteLineReq.mshrMissLatency::total        67998                       # number of WriteLineReq MSHR miss ticks (Tick)
system.cpu.dcache.WriteLineReq.mshrMissRate::cpu.data            1                       # mshr miss rate for WriteLineReq accesses (Ratio)
system.cpu.dcache.WriteLineReq.mshrMissRate::total            1                       # mshr miss rate for WriteLineReq accesses (Ratio)
system.cpu.dcache.WriteLineReq.avgMshrMissLatency::cpu.data         9714                       # average WriteLineReq mshr miss latency ((Tick/Count))
system.cpu.dcache.WriteLineReq.avgMshrMissLatency::total         9714                       # average WriteLineReq mshr miss latency ((Tick/Count))
system.cpu.dcache.WriteReq.hits::cpu.data         8597                       # number of WriteReq hits (Count)
system.cpu.dcache.WriteReq.hits::total           8597                       # number of WriteReq hits (Count)
system.cpu.dcache.WriteReq.misses::cpu.data          541                       # number of WriteReq misses (Count)
system.cpu.dcache.WriteReq.misses::total          541                       # number of WriteReq misses (Count)
system.cpu.dcache.WriteReq.missLatency::cpu.data     27665478                       # number of WriteReq miss ticks (Tick)
system.cpu.dcache.WriteReq.missLatency::total     27665478                       # number of WriteReq miss ticks (Tick)
system.cpu.dcache.WriteReq.accesses::cpu.data         9138                       # number of WriteReq accesses(hits+misses) (Count)
system.cpu.dcache.WriteReq.accesses::total         9138                       # number of WriteReq accesses(hits+misses) (Count)
system.cpu.dcache.WriteReq.missRate::cpu.data     0.059203                       # miss rate for WriteReq accesses (Ratio)
system.cpu.dcache.WriteReq.missRate::total     0.059203                       # miss rate for WriteReq accesses (Ratio)
system.cpu.dcache.WriteReq.avgMissLatency::cpu.data 51137.667283                       # average WriteReq miss latency ((Tick/Count))
system.cpu.dcache.WriteReq.avgMissLatency::total 51137.667283                       # average WriteReq miss latency ((Tick/Count))
system.cpu.dcache.WriteReq.mshrHits::cpu.data          429                       # number of WriteReq MSHR hits (Count)
system.cpu.dcache.WriteReq.mshrHits::total          429                       # number of WriteReq MSHR hits (Count)
system.cpu.dcache.WriteReq.mshrMisses::cpu.data          112                       # number of WriteReq MSHR misses (Count)
system.cpu.dcache.WriteReq.mshrMisses::total          112                       # number of WriteReq MSHR misses (Count)
system.cpu.dcache.WriteReq.mshrMissLatency::cpu.data      6632998                       # number of WriteReq MSHR miss ticks (Tick)
system.cpu.dcache.WriteReq.mshrMissLatency::total      6632998                       # number of WriteReq MSHR miss ticks (Tick)
system.cpu.dcache.WriteReq.mshrMissRate::cpu.data     0.012257                       # mshr miss rate for WriteReq accesses (Ratio)
system.cpu.dcache.WriteReq.mshrMissRate::total     0.012257                       # mshr miss rate for WriteReq accesses (Ratio)
system.cpu.dcache.WriteReq.avgMshrMissLatency::cpu.data 59223.196429                       # average WriteReq mshr miss latency ((Tick/Count))
system.cpu.dcache.WriteReq.avgMshrMissLatency::total 59223.196429                       # average WriteReq mshr miss latency ((Tick/Count))
system.cpu.dcache.power_state.pwrStateResidencyTicks::UNDEFINED     47614000                       # Cumulative time (in ticks) in various power states (Tick)
system.cpu.dcache.tags.tagsInUse           146.315717                       # Average ticks per tags in use ((Tick/Count))
system.cpu.dcache.tags.totalRefs                24229                       # Total number of references to valid blocks. (Count)
system.cpu.dcache.tags.sampledRefs                260                       # Sample count of references to valid blocks. (Count)
system.cpu.dcache.tags.avgRefs              93.188462                       # Average number of references to valid blocks. ((Count/Count))
system.cpu.dcache.tags.warmupTick              145000                       # The tick when the warmup percentage was hit. (Tick)
system.cpu.dcache.tags.occupancies::cpu.data   146.315717                       # Average occupied blocks per tick, per requestor ((Count/Tick))
system.cpu.dcache.tags.avgOccs::cpu.data     0.571546                       # Average percentage of cache occupancy ((Ratio/Tick))
system.cpu.dcache.tags.avgOccs::total        0.571546                       # Average percentage of cache occupancy ((Ratio/Tick))
system.cpu.dcache.tags.occupanciesTaskId::1024          194                       # Occupied blocks per task id (Count)
system.cpu.dcache.tags.ageTaskId_1024::0           32                       # Occupied blocks per task id, per block age (Count)
system.cpu.dcache.tags.ageTaskId_1024::1          162                       # Occupied blocks per task id, per block age (Count)
system.cpu.dcache.tags.ratioOccsTaskId::1024     0.757812                       # Ratio of occupied blocks and all blocks, per task id (Ratio)
system.cpu.dcache.tags.tagAccesses              49838                       # Number of tag accesses (Count)
system.cpu.dcache.tags.dataAccesses             49838                       # Number of data accesses (Count)
system.cpu.dcache.tags.power_state.pwrStateResidencyTicks::UNDEFINED     47614000                       # Cumulative time (in ticks) in various power states (Tick)
system.cpu.decode.idleCycles                    23260                       # Number of cycles decode is idle (Cycle)
system.cpu.decode.blockedCycles                 10244                       # Number of cycles decode is blocked (Cycle)
system.cpu.decode.runCycles                     17277                       # Number of cycles decode is running (Cycle)
system.cpu.decode.unblockCycles                  1336                       # Number of cycles decode is unblocking (Cycle)
system.cpu.decode.squashCycles                   1040                       # Number of cycles decode is squashing (Cycle)
system.cpu.decode.branchResolved                 5922                       # Number of times decode resolved a branch (Count)
system.cpu.decode.branchMispred                   345                       # Number of times decode detected a branch misprediction (Count)
system.cpu.decode.decodedInsts                 103452                       # Number of instructions handled by decode (Count)
system.cpu.decode.squashedInsts                  1280                       # Number of squashed instructions handled by decode (Count)
system.cpu.fetch.icacheStallCycles              27123                       # Number of cycles fetch is stalled on an Icache miss (Cycle)
system.cpu.fetch.insts                         101673                       # Number of instructions fetch has processed (Count)
system.cpu.fetch.branches                       14563                       # Number of branches that fetch encountered (Count)
system.cpu.fetch.predictedBranches               7663                       # Number of branches that fetch has predicted taken (Count)
system.cpu.fetch.cycles                         24560                       # Number of cycles fetch has run and was not squashing or blocked (Cycle)
system.cpu.fetch.squashCycles                    2758                       # Number of cycles fetch has spent squashing (Cycle)
system.cpu.fetch.miscStallCycles                   81                       # Number of cycles fetch has spent waiting on interrupts, or bad addresses, or out of MSHRs (Cycle)
system.cpu.fetch.icacheWaitRetryStallCycles           14                       # Number of stall cycles due to full MSHR (Cycle)
system.cpu.fetch.cacheLines                     14131                       # Number of cache lines fetched (Count)
system.cpu.fetch.icacheSquashes                   799                       # Number of outstanding Icache misses that were squashed (Count)
system.cpu.fetch.nisnDist::samples              53157                       # Number of instructions fetched each cycle (Total) (Count)
system.cpu.fetch.nisnDist::mean              2.103730                       # Number of instructions fetched each cycle (Total) (Count)
system.cpu.fetch.nisnDist::stdev             3.101720                       # Number of instructions fetched each cycle (Total) (Count)
system.cpu.fetch.nisnDist::underflows               0      0.00%      0.00% # Number of instructions fetched each cycle (Total) (Count)
system.cpu.fetch.nisnDist::0                    32455     61.05%     61.05% # Number of instructions fetched each cycle (Total) (Count)
system.cpu.fetch.nisnDist::1                     1936      3.64%     64.70% # Number of instructions fetched each cycle (Total) (Count)
system.cpu.fetch.nisnDist::2                     2557      4.81%     69.51% # Number of instructions fetched each cycle (Total) (Count)
system.cpu.fetch.nisnDist::3                     1722      3.24%     72.75% # Number of instructions fetched each cycle (Total) (Count)
system.cpu.fetch.nisnDist::4                     1794      3.37%     76.12% # Number of instructions fetched each cycle (Total) (Count)
system.cpu.fetch.nisnDist::5                     2022      3.80%     79.93% # Number of instructions fetched each cycle (Total) (Count)
system.cpu.fetch.nisnDist::6                     1211      2.28%     82.20% # Number of instructions fetched each cycle (Total) (Count)
system.cpu.fetch.nisnDist::7                      620      1.17%     83.37% # Number of instructions fetched each cycle (Total) (Count)
system.cpu.fetch.nisnDist::8                     8840     16.63%    100.00% # Number of instructions fetched each cycle (Total) (Count)
system.cpu.fetch.nisnDist::overflows                0      0.00%    100.00% # Number of instructions fetched each cycle (Total) (Count)
system.cpu.fetch.nisnDist::min_value                0                       # Number of instructions fetched each cycle (Total) (Count)
system.cpu.fetch.nisnDist::max_value                8                       # Number of instructions fetched each cycle (Total) (Count)
system.cpu.fetch.nisnDist::total                53157                       # Number of instructions fetched each cycle (Total) (Count)
system.cpu.fetch.branchRate                  0.152926                       # Number of branch fetches per cycle (Ratio)
system.cpu.fetch.rate                        1.067668                       # Number of inst fetches per cycle ((Count/Cycle))
system.cpu.icache.demandHits::cpu.inst          13231                       # number of demand (read+write) hits (Count)
system.cpu.icache.demandHits::total             13231                       # number of demand (read+write) hits (Count)
system.cpu.icache.overallHits::cpu.inst         13231                       # number of overall hits (Count)
system.cpu.icache.overallHits::total            13231                       # number of overall hits (Count)
system.cpu.icache.demandMisses::cpu.inst          899                       # number of demand (read+write) misses (Count)
system.cpu.icache.demandMisses::total             899                       # number of demand (read+write) misses (Count)
system.cpu.icache.overallMisses::cpu.inst          899                       # number of overall misses (Count)
system.cpu.icache.overallMisses::total            899                       # number of overall misses (Count)
system.cpu.icache.demandMissLatency::cpu.inst     55049499                       # number of demand (read+write) miss ticks (Tick)
system.cpu.icache.demandMissLatency::total     55049499                       # number of demand (read+write) miss ticks (Tick)
system.cpu.icache.overallMissLatency::cpu.inst     55049499                       # number of overall miss ticks (Tick)
system.cpu.icache.overallMissLatency::total     55049499                       # number of overall miss ticks (Tick)
system.cpu.icache.demandAccesses::cpu.inst        14130                       # number of demand (read+write) accesses (Count)
system.cpu.icache.demandAccesses::total         14130                       # number of demand (read+write) accesses (Count)
system.cpu.icache.overallAccesses::cpu.inst        14130                       # number of overall (read+write) accesses (Count)
system.cpu.icache.overallAccesses::total        14130                       # number of overall (read+write) accesses (Count)
system.cpu.icache.demandMissRate::cpu.inst     0.063623                       # miss rate for demand accesses (Ratio)
system.cpu.icache.demandMissRate::total      0.063623                       # miss rate for demand accesses (Ratio)
system.cpu.icache.overallMissRate::cpu.inst     0.063623                       # miss rate for overall accesses (Ratio)
system.cpu.icache.overallMissRate::total     0.063623                       # miss rate for overall accesses (Ratio)
system.cpu.icache.demandAvgMissLatency::cpu.inst 61234.147942                       # average overall miss latency ((Cycle/Count))
system.cpu.icache.demandAvgMissLatency::total 61234.147942                       # average overall miss latency ((Cycle/Count))
system.cpu.icache.overallAvgMissLatency::cpu.inst 61234.147942                       # average overall miss latency ((Cycle/Count))
system.cpu.icache.overallAvgMissLatency::total 61234.147942                       # average overall miss latency ((Cycle/Count))
system.cpu.icache.blockedCycles::no_mshrs          563                       # number of cycles access was blocked (Cycle)
system.cpu.icache.blockedCycles::no_targets            0                       # number of cycles access was blocked (Cycle)
system.cpu.icache.blockedCauses::no_mshrs            6                       # number of times access was blocked (Count)
system.cpu.icache.blockedCauses::no_targets            0                       # number of times access was blocked (Count)
system.cpu.icache.avgBlocked::no_mshrs      93.833333                       # average number of cycles each access was blocked ((Cycle/Count))
system.cpu.icache.avgBlocked::no_targets          nan                       # average number of cycles each access was blocked ((Cycle/Count))
system.cpu.icache.writebacks::writebacks          227                       # number of writebacks (Count)
system.cpu.icache.writebacks::total               227                       # number of writebacks (Count)
system.cpu.icache.demandMshrHits::cpu.inst          233                       # number of demand (read+write) MSHR hits (Count)
system.cpu.icache.demandMshrHits::total           233                       # number of demand (read+write) MSHR hits (Count)
system.cpu.icache.overallMshrHits::cpu.inst          233                       # number of overall MSHR hits (Count)
system.cpu.icache.overallMshrHits::total          233                       # number of overall MSHR hits (Count)
system.cpu.icache.demandMshrMisses::cpu.inst          666                       # number of demand (read+write) MSHR misses (Count)
system.cpu.icache.demandMshrMisses::total          666                       # number of demand (read+write) MSHR misses (Count)
system.cpu.icache.overallMshrMisses::cpu.inst          666                       # number of overall MSHR misses (Count)
system.cpu.icache.overallMshrMisses::total          666                       # number of overall MSHR misses (Count)
system.cpu.icache.demandMshrMissLatency::cpu.inst     42091999                       # number of demand (read+write) MSHR miss ticks (Tick)
system.cpu.icache.demandMshrMissLatency::total     42091999                       # number of demand (read+write) MSHR miss ticks (Tick)
system.cpu.icache.overallMshrMissLatency::cpu.inst     42091999                       # number of overall MSHR miss ticks (Tick)
system.cpu.icache.overallMshrMissLatency::total     42091999                       # number of overall MSHR miss ticks (Tick)
system.cpu.icache.demandMshrMissRate::cpu.inst     0.047134                       # mshr miss ratio for demand accesses (Ratio)
system.cpu.icache.demandMshrMissRate::total     0.047134                       # mshr miss ratio for demand accesses (Ratio)
system.cpu.icache.overallMshrMissRate::cpu.inst     0.047134                       # mshr miss ratio for overall accesses (Ratio)
system.cpu.icache.overallMshrMissRate::total     0.047134                       # mshr miss ratio for overall accesses (Ratio)
system.cpu.icache.demandAvgMshrMissLatency::cpu.inst 63201.199700                       # average overall mshr miss latency ((Cycle/Count))
system.cpu.icache.demandAvgMshrMissLatency::total 63201.199700                       # average overall mshr miss latency ((Cycle/Count))
system.cpu.icache.overallAvgMshrMissLatency::cpu.inst 63201.199700                       # average overall mshr miss latency ((Cycle/Count))
system.cpu.icache.overallAvgMshrMissLatency::total 63201.199700                       # average overall mshr miss latency ((Cycle/Count))
system.cpu.icache.replacements                    227                       # number of replacements (Count)
system.cpu.icache.ReadReq.hits::cpu.inst        13231                       # number of ReadReq hits (Count)
system.cpu.icache.ReadReq.hits::total           13231                       # number of ReadReq hits (Count)
system.cpu.icache.ReadReq.misses::cpu.inst          899                       # number of ReadReq misses (Count)
system.cpu.icache.ReadReq.misses::total           899                       # number of ReadReq misses (Count)
system.cpu.icache.ReadReq.missLatency::cpu.inst     55049499                       # number of ReadReq miss ticks (Tick)
system.cpu.icache.ReadReq.missLatency::total     55049499                       # number of ReadReq miss ticks (Tick)
system.cpu.icache.ReadReq.accesses::cpu.inst        14130                       # number of ReadReq accesses(hits+misses) (Count)
system.cpu.icache.ReadReq.accesses::total        14130                       # number of ReadReq accesses(hits+misses) (Count)
system.cpu.icache.ReadReq.missRate::cpu.inst     0.063623                       # miss rate for ReadReq accesses (Ratio)
system.cpu.icache.ReadReq.missRate::total     0.063623                       # miss rate for ReadReq accesses (Ratio)
system.cpu.icache.ReadReq.avgMissLatency::cpu.inst 61234.147942                       # average ReadReq miss latency ((Tick/Count))
system.cpu.icache.ReadReq.avgMissLatency::total 61234.147942                       # average ReadReq miss latency ((Tick/Count))
system.cpu.icache.ReadReq.mshrHits::cpu.inst          233                       # number of ReadReq MSHR hits (Count)
system.cpu.icache.ReadReq.mshrHits::total          233                       # number of ReadReq MSHR hits (Count)
system.cpu.icache.ReadReq.mshrMisses::cpu.inst          666                       # number of ReadReq MSHR misses (Count)
system.cpu.icache.ReadReq.mshrMisses::total          666                       # number of ReadReq MSHR misses (Count)
system.cpu.icache.ReadReq.mshrMissLatency::cpu.inst     42091999                       # number of ReadReq MSHR miss ticks (Tick)
system.cpu.icache.ReadReq.mshrMissLatency::total     42091999                       # number of ReadReq MSHR miss ticks (Tick)
system.cpu.icache.ReadReq.mshrMissRate::cpu.inst     0.047134                       # mshr miss rate for ReadReq accesses (Ratio)
system.cpu.icache.ReadReq.mshrMissRate::total     0.047134                       # mshr miss rate for ReadReq accesses (Ratio)
system.cpu.icache.ReadReq.avgMshrMissLatency::cpu.inst 63201.199700                       # average ReadReq mshr miss latency ((Tick/Count))
system.cpu.icache.ReadReq.avgMshrMissLatency::total 63201.199700                       # average ReadReq mshr miss latency ((Tick/Count))
system.cpu.icache.power_state.pwrStateResidencyTicks::UNDEFINED     47614000                       # Cumulative time (in ticks) in various power states (Tick)
system.cpu.icache.tags.tagsInUse           295.132548                       # Average ticks per tags in use ((Tick/Count))
system.cpu.icache.tags.totalRefs                13896                       # Total number of references to valid blocks. (Count)
system.cpu.icache.tags.sampledRefs                665                       # Sample count of references to valid blocks. (Count)
system.cpu.icache.tags.avgRefs              20.896241                       # Average number of references to valid blocks. ((Count/Count))
system.cpu.icache.tags.warmupTick               77000                       # The tick when the warmup percentage was hit. (Tick)
system.cpu.icache.tags.occupancies::cpu.inst   295.132548                       # Average occupied blocks per tick, per requestor ((Count/Tick))
system.cpu.icache.tags.avgOccs::cpu.inst     0.576431                       # Average percentage of cache occupancy ((Ratio/Tick))
system.cpu.icache.tags.avgOccs::total        0.576431                       # Average percentage of cache occupancy ((Ratio/Tick))
system.cpu.icache.tags.occupanciesTaskId::1024          438                       # Occupied blocks per task id (Count)
system.cpu.icache.tags.ageTaskId_1024::0          134                       # Occupied blocks per task id, per block age (Count)
system.cpu.icache.tags.ageTaskId_1024::1          304                       # Occupied blocks per task id, per block age (Count)
system.cpu.icache.tags.ratioOccsTaskId::1024     0.855469                       # Ratio of occupied blocks and all blocks, per task id (Ratio)
system.cpu.icache.tags.tagAccesses              28925                       # Number of tag accesses (Count)
system.cpu.icache.tags.dataAccesses             28925                       # Number of data accesses (Count)
system.cpu.icache.tags.power_state.pwrStateResidencyTicks::UNDEFINED     47614000                       # Cumulative time (in ticks) in various power states (Tick)
system.cpu.iew.idleCycles                           0                       # Number of cycles IEW is idle (Cycle)
system.cpu.iew.squashCycles                      1040                       # Number of cycles IEW is squashing (Cycle)
system.cpu.iew.blockCycles                       2104                       # Number of cycles IEW is blocking (Cycle)
system.cpu.iew.unblockCycles                      221                       # Number of cycles IEW is unblocking (Cycle)
system.cpu.iew.dispatchedInsts                  95988                       # Number of instructions dispatched to IQ (Count)
system.cpu.iew.dispSquashedInsts                  300                       # Number of squashed instructions skipped by dispatch (Count)
system.cpu.iew.dispLoadInsts                    18953                       # Number of dispatched load instructions (Count)
system.cpu.iew.dispStoreInsts                   11073                       # Number of dispatched store instructions (Count)
system.cpu.iew.dispNonSpecInsts                   103                       # Number of dispatched non-speculative instructions (Count)
system.cpu.iew.iqFullEvents                         7                       # Number of times the IQ has become full, causing a stall (Count)
system.cpu.iew.lsqFullEvents                      214                       # Number of times the LSQ has become full, causing a stall (Count)
system.cpu.iew.memOrderViolationEvents            153                       # Number of memory order violations (Count)
system.cpu.iew.predictedTakenIncorrect            199                       # Number of branches that were predicted taken incorrectly (Count)
system.cpu.iew.predictedNotTakenIncorrect          785                       # Number of branches that were predicted not taken incorrectly (Count)
system.cpu.iew.branchMispredicts                  984                       # Number of branch mispredicts detected at execute (Count)
system.cpu.iew.instsToCommit                    87985                       # Cumulative count of insts sent to commit (Count)
system.cpu.iew.writebackCount                   87269                       # Cumulative count of insts written-back (Count)
system.cpu.iew.producerInst                     54831                       # Number of instructions producing a value (Count)
system.cpu.iew.consumerInst                     79126                       # Number of instructions consuming a value (Count)
system.cpu.iew.wbRate                        0.916412                       # Insts written-back per cycle ((Count/Cycle))
system.cpu.iew.wbFanout                      0.692958                       # Average fanout of values written-back ((Count/Count))
system.cpu.lsq0.forwLoads                        2256                       # Number of loads that had data forwarded from stores (Count)
system.cpu.lsq0.squashedLoads                    3716                       # Number of loads squashed (Count)
system.cpu.lsq0.ignoredResponses                   19                       # Number of memory responses ignored because the instruction is squashed (Count)
system.cpu.lsq0.memOrderViolation                 153                       # Number of memory ordering violations (Count)
system.cpu.lsq0.squashedStores                   1910                       # Number of stores squashed (Count)
system.cpu.lsq0.rescheduledLoads                  147                       # Number of loads that were rescheduled (Count)
system.cpu.lsq0.blockedByCache                     39                       # Number of times an access to memory failed due to the cache being blocked (Count)
system.cpu.lsq0.loadToUse::samples              15231                       # Distribution of cycle latency between the first time a load is issued and its completion (Unspecified)
system.cpu.lsq0.loadToUse::mean              4.271486                       # Distribution of cycle latency between the first time a load is issued and its completion (Unspecified)
system.cpu.lsq0.loadToUse::stdev            13.694722                       # Distribution of cycle latency between the first time a load is issued and its completion (Unspecified)
system.cpu.lsq0.loadToUse::0-9                  15078     99.00%     99.00% # Distribution of cycle latency between the first time a load is issued and its completion (Unspecified)
system.cpu.lsq0.loadToUse::10-19                   22      0.14%     99.14% # Distribution of cycle latency between the first time a load is issued and its completion (Unspecified)
[...]
system.mem_ctrls.dram.bwRead::cpu.inst      893854749                       # Total read bandwidth from this memory ((Byte/Second))
system.mem_ctrls.dram.bwRead::cpu.data      337379762                       # Total read bandwidth from this memory ((Byte/Second))
system.mem_ctrls.dram.bwRead::total        1231234511                       # Total read bandwidth from this memory ((Byte/Second))
system.mem_ctrls.dram.bwInstRead::cpu.inst    893854749                       # Instruction read bandwidth from this memory ((Byte/Second))
system.mem_ctrls.dram.bwInstRead::total     893854749                       # Instruction read bandwidth from this memory ((Byte/Second))
system.mem_ctrls.dram.bwWrite::writebacks     40324274                       # Write bandwidth from this memory ((Byte/Second))
system.mem_ctrls.dram.bwWrite::total         40324274                       # Write bandwidth from this memory ((Byte/Second))
system.mem_ctrls.dram.bwTotal::writebacks     40324274                       # Total bandwidth to/from this memory ((Byte/Second))
system.mem_ctrls.dram.bwTotal::cpu.inst     893854749                       # Total bandwidth to/from this memory ((Byte/Second))
system.mem_ctrls.dram.bwTotal::cpu.data     337379762                       # Total bandwidth to/from this memory ((Byte/Second))
system.mem_ctrls.dram.bwTotal::total       1271558785                       # Total bandwidth to/from this memory ((Byte/Second))
system.mem_ctrls.dram.readBursts                  900                       # Number of DRAM read bursts (Count)
system.mem_ctrls.dram.writeBursts                 233                       # Number of DRAM write bursts (Count)
system.mem_ctrls.dram.perBankRdBursts::0          150                       # Per bank write bursts (Count)
system.mem_ctrls.dram.perBankRdBursts::1          170                       # Per bank write bursts (Count)
system.mem_ctrls.dram.perBankRdBursts::2           68                       # Per bank write bursts (Count)
system.mem_ctrls.dram.perBankRdBursts::3           84                       # Per bank write bursts (Count)
system.mem_ctrls.dram.perBankRdBursts::4           84                       # Per bank write bursts (Count)
system.mem_ctrls.dram.perBankRdBursts::5           67                       # Per bank write bursts (Count)
system.mem_ctrls.dram.perBankRdBursts::6            8                       # Per bank write bursts (Count)
system.mem_ctrls.dram.perBankRdBursts::7            3                       # Per bank write bursts (Count)
system.mem_ctrls.dram.perBankRdBursts::8           16                       # Per bank write bursts (Count)
system.mem_ctrls.dram.perBankRdBursts::9           44                       # Per bank write bursts (Count)
system.mem_ctrls.dram.perBankRdBursts::10           13                       # Per bank write bursts (Count)
system.mem_ctrls.dram.perBankRdBursts::11           26                       # Per bank write bursts (Count)
system.mem_ctrls.dram.perBankRdBursts::12           38                       # Per bank write bursts (Count)
system.mem_ctrls.dram.perBankRdBursts::13           58                       # Per bank write bursts (Count)
system.mem_ctrls.dram.perBankRdBursts::14           17                       # Per bank write bursts (Count)
system.mem_ctrls.dram.perBankRdBursts::15           54                       # Per bank write bursts (Count)
system.mem_ctrls.dram.perBankWrBursts::0           23                       # Per bank write bursts (Count)
system.mem_ctrls.dram.perBankWrBursts::1           39                       # Per bank write bursts (Count)
system.mem_ctrls.dram.perBankWrBursts::2           26                       # Per bank write bursts (Count)
system.mem_ctrls.dram.perBankWrBursts::3           11                       # Per bank write bursts (Count)
system.mem_ctrls.dram.perBankWrBursts::4           34                       # Per bank write bursts (Count)
system.mem_ctrls.dram.perBankWrBursts::5           31                       # Per bank write bursts (Count)
system.mem_ctrls.dram.perBankWrBursts::6            1                       # Per bank write bursts (Count)
system.mem_ctrls.dram.perBankWrBursts::7            1                       # Per bank write bursts (Count)
system.mem_ctrls.dram.perBankWrBursts::8            7                       # Per bank write bursts (Count)
system.mem_ctrls.dram.perBankWrBursts::9            8                       # Per bank write bursts (Count)
system.mem_ctrls.dram.perBankWrBursts::10            1                       # Per bank write bursts (Count)
system.mem_ctrls.dram.perBankWrBursts::11           10                       # Per bank write bursts (Count)
system.mem_ctrls.dram.perBankWrBursts::12            3                       # Per bank write bursts (Count)
system.mem_ctrls.dram.perBankWrBursts::13            2                       # Per bank write bursts (Count)
system.mem_ctrls.dram.perBankWrBursts::14           11                       # Per bank write bursts (Count)
system.mem_ctrls.dram.perBankWrBursts::15           25                       # Per bank write bursts (Count)
system.mem_ctrls.dram.totQLat                12761750                       # Total ticks spent queuing (Tick)
system.mem_ctrls.dram.totBusLat               4500000                       # Total ticks spent in databus transfers (Tick)
system.mem_ctrls.dram.totMemAccLat           29636750                       # Total ticks spent from burst creation until serviced by the DRAM (Tick)
system.mem_ctrls.dram.avgQLat                14179.72                       # Average queueing delay per DRAM burst ((Tick/Count))
system.mem_ctrls.dram.avgBusLat               5000.00                       # Average bus latency per DRAM burst ((Tick/Count))
system.mem_ctrls.dram.avgMemAccLat           32929.72                       # Average memory access latency per DRAM burst ((Tick/Count))
system.mem_ctrls.dram.readRowHits                 692                       # Number of row buffer hits during reads (Count)
system.mem_ctrls.dram.writeRowHits                177                       # Number of row buffer hits during writes (Count)
system.mem_ctrls.dram.readRowHitRate            76.89                       # Row buffer hit rate for reads (Ratio)
system.mem_ctrls.dram.writeRowHitRate           75.97                       # Row buffer hit rate for writes (Ratio)
system.mem_ctrls.dram.bytesPerActivate::samples          258                       # Bytes accessed per row activation (Byte)
system.mem_ctrls.dram.bytesPerActivate::mean   274.108527                       # Bytes accessed per row activation (Byte)
system.mem_ctrls.dram.bytesPerActivate::gmean   177.206687                       # Bytes accessed per row activation (Byte)
system.mem_ctrls.dram.bytesPerActivate::stdev   280.148078                       # Bytes accessed per row activation (Byte)
system.mem_ctrls.dram.bytesPerActivate::0-127           83     32.17%     32.17% # Bytes accessed per row activation (Byte)
system.mem_ctrls.dram.bytesPerActivate::128-255           79     30.62%     62.79% # Bytes accessed per row activation (Byte)
system.mem_ctrls.dram.bytesPerActivate::256-383           33     12.79%     75.58% # Bytes accessed per row activation (Byte)
system.mem_ctrls.dram.bytesPerActivate::384-511           17      6.59%     82.17% # Bytes accessed per row activation (Byte)
system.mem_ctrls.dram.bytesPerActivate::512-639           14      5.43%     87.60% # Bytes accessed per row activation (Byte)
system.mem_ctrls.dram.bytesPerActivate::640-767            5      1.94%     89.53% # Bytes accessed per row activation (Byte)
system.mem_ctrls.dram.bytesPerActivate::768-895            4      1.55%     91.09% # Bytes accessed per row activation (Byte)
system.mem_ctrls.dram.bytesPerActivate::896-1023            7      2.71%     93.80% # Bytes accessed per row activation (Byte)
system.mem_ctrls.dram.bytesPerActivate::1024-1151           16      6.20%    100.00% # Bytes accessed per row activation (Byte)
system.mem_ctrls.dram.bytesPerActivate::total          258                       # Bytes accessed per row activation (Byte)
system.mem_ctrls.dram.bytesRead                 57600                       # Total bytes read (Byte)
system.mem_ctrls.dram.bytesWritten              14912                       # Total bytes written (Byte)
system.mem_ctrls.dram.avgRdBW             1209.728231                       # Average DRAM read bandwidth in MiBytes/s ((Byte/Second))
system.mem_ctrls.dram.avgWrBW              313.185198                       # Average DRAM write bandwidth in MiBytes/s ((Byte/Second))
system.mem_ctrls.dram.peakBW                 12800.00                       # Theoretical peak bandwidth in MiByte/s ((Byte/Second))
system.mem_ctrls.dram.busUtil                   11.90                       # Data bus utilization in percentage (Ratio)
system.mem_ctrls.dram.busUtilRead                9.45                       # Data bus utilization in percentage for reads (Ratio)
system.mem_ctrls.dram.busUtilWrite               2.45                       # Data bus utilization in percentage for writes (Ratio)
system.mem_ctrls.dram.pageHitRate               76.70                       # Row buffer hit rate, read and write combined (Ratio)
system.mem_ctrls.dram.power_state.pwrStateResidencyTicks::UNDEFINED     47614000                       # Cumulative time (in ticks) in various power states (Tick)
system.mem_ctrls.dram.rank0.actEnergy         1392300                       # Energy for activate commands per rank (pJ) (Joule)
system.mem_ctrls.dram.rank0.preEnergy          736230                       # Energy for precharge commands per rank (pJ) (Joule)
system.mem_ctrls.dram.rank0.readEnergy        4526760                       # Energy for read commands per rank (pJ) (Joule)
system.mem_ctrls.dram.rank0.writeEnergy        866520                       # Energy for write commands per rank (pJ) (Joule)
system.mem_ctrls.dram.rank0.refreshEnergy 3687840.000000                       # Energy for refresh commands per rank (pJ) (Joule)
system.mem_ctrls.dram.rank0.actBackEnergy     21548280                       # Energy for active background per rank (pJ) (Joule)
system.mem_ctrls.dram.rank0.preBackEnergy       138240                       # Energy for precharge background per rank (pJ) (Joule)
system.mem_ctrls.dram.rank0.actPowerDownEnergy            0                       # Energy for active power-down per rank (pJ) (Joule)
system.mem_ctrls.dram.rank0.prePowerDownEnergy            0                       # Energy for precharge power-down per rank (pJ) (Joule)
system.mem_ctrls.dram.rank0.selfRefreshEnergy            0                       # Energy for self refresh per rank (pJ) (Joule)
system.mem_ctrls.dram.rank0.totalEnergy      32896170                       # Total energy per rank (pJ) (Joule)
system.mem_ctrls.dram.rank0.averagePower   690.892805                       # Core power per rank (mW) (Watt)
system.mem_ctrls.dram.rank0.totalIdleTime            0                       # Total Idle time Per DRAM Rank (Tick)
system.mem_ctrls.dram.rank0.pwrStateTime::IDLE       180500                       # Time in different power states (Tick)
system.mem_ctrls.dram.rank0.pwrStateTime::REF      1560000                       # Time in different power states (Tick)
system.mem_ctrls.dram.rank0.pwrStateTime::SREF            0                       # Time in different power states (Tick)
system.mem_ctrls.dram.rank0.pwrStateTime::PRE_PDN            0                       # Time in different power states (Tick)
system.mem_ctrls.dram.rank0.pwrStateTime::ACT     45873500                       # Time in different power states (Tick)
system.mem_ctrls.dram.rank0.pwrStateTime::ACT_PDN            0                       # Time in different power states (Tick)
system.mem_ctrls.dram.rank1.actEnergy          492660                       # Energy for activate commands per rank (pJ) (Joule)
system.mem_ctrls.dram.rank1.preEnergy          242880                       # Energy for precharge commands per rank (pJ) (Joule)
system.mem_ctrls.dram.rank1.readEnergy        1899240                       # Energy for read commands per rank (pJ) (Joule)
system.mem_ctrls.dram.rank1.writeEnergy        323640                       # Energy for write commands per rank (pJ) (Joule)
system.mem_ctrls.dram.rank1.refreshEnergy 3687840.000000                       # Energy for refresh commands per rank (pJ) (Joule)
system.mem_ctrls.dram.rank1.actBackEnergy     20742870                       # Energy for active background per rank (pJ) (Joule)
system.mem_ctrls.dram.rank1.preBackEnergy       816480                       # Energy for precharge background per rank (pJ) (Joule)
system.mem_ctrls.dram.rank1.actPowerDownEnergy            0                       # Energy for active power-down per rank (pJ) (Joule)
system.mem_ctrls.dram.rank1.prePowerDownEnergy            0                       # Energy for precharge power-down per rank (pJ) (Joule)
system.mem_ctrls.dram.rank1.selfRefreshEnergy            0                       # Energy for self refresh per rank (pJ) (Joule)
system.mem_ctrls.dram.rank1.totalEnergy      28205610                       # Total energy per rank (pJ) (Joule)
system.mem_ctrls.dram.rank1.averagePower   592.380602                       # Core power per rank (mW) (Watt)
system.mem_ctrls.dram.rank1.totalIdleTime            0                       # Total Idle time Per DRAM Rank (Tick)
system.mem_ctrls.dram.rank1.pwrStateTime::IDLE      1945500                       # Time in different power states (Tick)
system.mem_ctrls.dram.rank1.pwrStateTime::REF      1560000                       # Time in different power states (Tick)
system.mem_ctrls.dram.rank1.pwrStateTime::SREF            0                       # Time in different power states (Tick)
system.mem_ctrls.dram.rank1.pwrStateTime::PRE_PDN            0                       # Time in different power states (Tick)
system.mem_ctrls.dram.rank1.pwrStateTime::ACT     44108500                       # Time in different power states (Tick)
system.mem_ctrls.dram.rank1.pwrStateTime::ACT_PDN            0                       # Time in different power states (Tick)
system.mem_ctrls.power_state.pwrStateResidencyTicks::UNDEFINED     47614000                       # Cumulative time (in ticks) in various power states (Tick)
system.membus.transDist::ReadResp                 806                       # Transaction distribution (Count)
system.membus.transDist::WritebackDirty            30                       # Transaction distribution (Count)
system.membus.transDist::WritebackClean           227                       # Transaction distribution (Count)
system.membus.transDist::CleanEvict                36                       # Transaction distribution (Count)
system.membus.transDist::ReadExReq                110                       # Transaction distribution (Count)
system.membus.transDist::ReadExResp               110                       # Transaction distribution (Count)
system.membus.transDist::ReadCleanReq             666                       # Transaction distribution (Count)
system.membus.transDist::ReadSharedReq            141                       # Transaction distribution (Count)
system.membus.transDist::InvalidateReq              9                       # Transaction distribution (Count)
system.membus.pktCount_system.cpu.icache.mem_side_port::system.mem_ctrls.port         1558                       # Packet count per connected requestor and responder (Count)
system.membus.pktCount_system.cpu.dcache.mem_side_port::system.mem_ctrls.port          577                       # Packet count per connected requestor and responder (Count)
system.membus.pktCount::total                    2135                       # Packet count per connected requestor and responder (Count)
system.membus.pktSize_system.cpu.icache.mem_side_port::system.mem_ctrls.port        57088                       # Cumulative packet size per connected requestor and responder (Byte)
system.membus.pktSize_system.cpu.dcache.mem_side_port::system.mem_ctrls.port        17984                       # Cumulative packet size per connected requestor and responder (Byte)
system.membus.pktSize::total                    75072                       # Cumulative packet size per connected requestor and responder (Byte)
system.membus.snoops                                0                       # Total snoops (Count)
system.membus.snoopTraffic                          0                       # Total snoop traffic (Byte)
system.membus.snoopFanout::samples                926                       # Request fanout histogram (Count)
system.membus.snoopFanout::mean              0.002160                       # Request fanout histogram (Count)
system.membus.snoopFanout::stdev             0.046449                       # Request fanout histogram (Count)
system.membus.snoopFanout::underflows               0      0.00%      0.00% # Request fanout histogram (Count)
system.membus.snoopFanout::0                      924     99.78%     99.78% # Request fanout histogram (Count)
system.membus.snoopFanout::1                        2      0.22%    100.00% # Request fanout histogram (Count)
system.membus.snoopFanout::2                        0      0.00%    100.00% # Request fanout histogram (Count)
system.membus.snoopFanout::overflows                0      0.00%    100.00% # Request fanout histogram (Count)
system.membus.snoopFanout::min_value                0                       # Request fanout histogram (Count)
system.membus.snoopFanout::max_value                1                       # Request fanout histogram (Count)
system.membus.snoopFanout::total                  926                       # Request fanout histogram (Count)
system.membus.power_state.pwrStateResidencyTicks::UNDEFINED     47614000                       # Cumulative time (in ticks) in various power states (Tick)
system.membus.reqLayer0.occupancy             2412500                       # Layer occupancy (ticks) (Tick)
system.membus.reqLayer0.utilization               0.1                       # Layer utilization (Ratio)
system.membus.respLayer1.occupancy            3518000                       # Layer occupancy (ticks) (Tick)
system.membus.respLayer1.utilization              0.1                       # Layer utilization (Ratio)
system.membus.respLayer2.occupancy            1339250                       # Layer occupancy (ticks) (Tick)
system.membus.respLayer2.utilization              0.0                       # Layer utilization (Ratio)
system.membus.snoop_filter.totRequests           1219                       # Total number of requests made to the snoop filter. (Count)
system.membus.snoop_filter.hitSingleRequests          294                       # Number of requests hitting in the snoop filter with a single holder of the requested data. (Count)
system.membus.snoop_filter.hitMultiRequests            1                       # Number of requests hitting in the snoop filter with multiple (>1) holders of the requested data. (Count)
system.membus.snoop_filter.totSnoops                0                       # Total number of snoops made to the snoop filter. (Count)
system.membus.snoop_filter.hitSingleSnoops            0                       # Number of snoops hitting in the snoop filter with a single holder of the requested data. (Count)
system.membus.snoop_filter.hitMultiSnoops            0                       # Number of snoops hitting in the snoop filter with multiple (>1) holders of the requested data. (Count)
system.voltage_domain.voltage                       1                       # Voltage in Volts (Volt)
system.workload.inst.arm                            0                       # number of arm instructions executed (Count)
system.workload.inst.quiesce                        0                       # number of quiesce instructions executed (Count)

---------- End Simulation Statistics   ----------
