
---------- Begin Simulation Statistics ----------
simSeconds                                   0.031452                       # Number of seconds simulated (Second)
simTicks                                  31451981000                       # Number of ticks simulated (Tick)
finalTick                                 31451981000                       # Number of ticks from beginning of simulation (restored from checkpoints and never reset) (Tick)
simFreq                                  1000000000000                       # The number of ticks per simulated second ((Tick/Second))
hostSeconds                                     61.70                       # Real time elapsed on the host (Second)
hostTickRate                                509735374                       # The number of ticks simulated per host second (ticks/s) ((Tick/Second))
hostMemory                                     671432                       # Number of bytes of host memory used (Byte)
simInsts                                     46390398                       # Number of instructions simulated (Count)
simOps                                       50730771                       # Number of ops (including micro ops) simulated (Count)
hostInstRate                                   751839                       # Simulator instruction rate (inst/s) ((Count/Second))
hostOpRate                                     822182                       # Simulator op (including micro ops) rate (op/s) ((Count/Second))
system.clk_domain.clock                          1000                       # Clock period in ticks (Tick)
system.cpu.numCycles                         62903962                       # Number of cpu cycles simulated (Cycle)
system.cpu.numWorkItemsStarted                      0                       # Number of work items this cpu started (Count)
system.cpu.numWorkItemsCompleted                    0                       # Number of work items this cpu completed (Count)
system.cpu.numInsts                          46390398                       # Number of instructions committed (Count)
system.cpu.numOps                            50730771                       # Number of ops (including micro ops) committed (Count)
system.cpu.numDiscardedOps                     249790                       # Number of ops (including micro ops) which were discarded before commit (Count)
system.cpu.numFetchSuspends                         0                       # Number of times Execute suspended instruction fetching (Count)
system.cpu.cpi                               1.355969                       # CPI: cycles per instruction ((Cycle/Count))
system.cpu.ipc                               0.737480                       # IPC: instructions per cycle ((Count/Cycle))
system.cpu.committedInstType_0::No_OpClass        27678      0.05%      0.05% # Class of committed instruction (Count)
system.cpu.committedInstType_0::IntAlu       32632064     64.32%     64.38% # Class of committed instruction (Count)
system.cpu.committedInstType_0::IntMult        641224      1.26%     65.64% # Class of committed instruction (Count)
system.cpu.committedInstType_0::IntDiv         153813      0.30%     65.95% # Class of committed instruction (Count)
system.cpu.committedInstType_0::FloatAdd       278528      0.55%     66.49% # Class of committed instruction (Count)
system.cpu.committedInstType_0::FloatCmp        16384      0.03%     66.53% # Class of committed instruction (Count)
system.cpu.committedInstType_0::FloatCvt            0      0.00%     66.53% # Class of committed instruction (Count)
system.cpu.committedInstType_0::FloatMult       262144      0.52%     67.04% # Class of committed instruction (Count)
system.cpu.committedInstType_0::FloatMultAcc            0      0.00%     67.04% # Class of committed instruction (Count)
system.cpu.committedInstType_0::FloatDiv            0      0.00%     67.04% # Class of committed instruction (Count)
system.cpu.committedInstType_0::FloatMisc        49152      0.10%     67.14% # Class of committed instruction (Count)
system.cpu.committedInstType_0::FloatSqrt            0      0.00%     67.14% # Class of committed instruction (Count)
system.cpu.committedInstType_0::SimdAdd         62740      0.12%     67.26% # Class of committed instruction (Count)
system.cpu.committedInstType_0::SimdAddAcc            0      0.00%     67.26% # Class of committed instruction (Count)
system.cpu.committedInstType_0::SimdAlu        118039      0.23%     67.50% # Class of committed instruction (Count)
system.cpu.committedInstType_0::SimdCmp        110616      0.22%     67.72% # Class of committed instruction (Count)
system.cpu.committedInstType_0::SimdCvt             0      0.00%     67.72% # Class of committed instruction (Count)
system.cpu.committedInstType_0::SimdMisc        76054      0.15%     67.86% # Class of committed instruction (Count)
system.cpu.committedInstType_0::SimdMult            0      0.00%     67.86% # Class of committed instruction (Count)
system.cpu.committedInstType_0::SimdMultAcc            0      0.00%     67.86% # Class of committed instruction (Count)
system.cpu.committedInstType_0::SimdShift            0      0.00%     67.86% # Class of committed instruction (Count)
system.cpu.committedInstType_0::SimdShiftAcc            0      0.00%     67.86% # Class of committed instruction (Count)
system.cpu.committedInstType_0::SimdDiv             0      0.00%     67.86% # Class of committed instruction (Count)
system.cpu.committedInstType_0::SimdSqrt            0      0.00%     67.86% # Class of committed instruction (Count)
system.cpu.committedInstType_0::SimdFloatAdd            0      0.00%     67.86% # Class of committed instruction (Count)
system.cpu.committedInstType_0::SimdFloatAlu            0      0.00%     67.86% # Class of committed instruction (Count)
system.cpu.committedInstType_0::SimdFloatCmp            0      0.00%     67.86% # Class of committed instruction (Count)
system.cpu.committedInstType_0::SimdFloatCvt            0      0.00%     67.86% # Class of committed instruction (Count)
system.cpu.committedInstType_0::SimdFloatDiv            0      0.00%     67.86% # Class of committed instruction (Count)
system.cpu.committedInstType_0::SimdFloatMisc            0      0.00%     67.86% # Class of committed instruction (Count)
system.cpu.committedInstType_0::SimdFloatMult            0      0.00%     67.86% # Class of committed instruction (Count)
system.cpu.committedInstType_0::SimdFloatMultAcc            0      0.00%     67.86% # Class of committed instruction (Count)
system.cpu.committedInstType_0::SimdFloatSqrt            0      0.00%     67.86% # Class of committed instruction (Count)
system.cpu.committedInstType_0::SimdReduceAdd            0      0.00%     67.86% # Class of committed instruction (Count)
system.cpu.committedInstType_0::SimdReduceAlu            0      0.00%     67.86% # Class of committed instruction (Count)
system.cpu.committedInstType_0::SimdReduceCmp            0      0.00%     67.86% # Class of committed instruction (Count)
system.cpu.committedInstType_0::SimdFloatReduceAdd            0      0.00%     67.86% # Class of committed instruction (Count)
system.cpu.committedInstType_0::SimdFloatReduceCmp            0      0.00%     67.86% # Class of committed instruction (Count)
system.cpu.committedInstType_0::SimdAes             0      0.00%     67.86% # Class of committed instruction (Count)
system.cpu.committedInstType_0::SimdAesMix            0      0.00%     67.86% # Class of committed instruction (Count)
system.cpu.committedInstType_0::SimdSha1Hash            0      0.00%     67.86% # Class of committed instruction (Count)
system.cpu.committedInstType_0::SimdSha1Hash2            0      0.00%     67.86% # Class of committed instruction (Count)
system.cpu.committedInstType_0::SimdSha256Hash            0      0.00%     67.86% # Class of committed instruction (Count)
system.cpu.committedInstType_0::SimdSha256Hash2            0      0.00%     67.86% # Class of committed instruction (Count)
system.cpu.committedInstType_0::SimdShaSigma2            0      0.00%     67.86% # Class of committed instruction (Count)
system.cpu.committedInstType_0::SimdShaSigma3            0      0.00%     67.86% # Class of committed instruction (Count)
system.cpu.committedInstType_0::SimdPredAlu            0      0.00%     67.86% # Class of committed instruction (Count)
system.cpu.committedInstType_0::MemRead      11006940     21.70%     89.56% # Class of committed instruction (Count)
system.cpu.committedInstType_0::MemWrite      5295395     10.44%    100.00% # Class of committed instruction (Count)
system.cpu.committedInstType_0::FloatMemRead            0      0.00%    100.00% # Class of committed instruction (Count)
system.cpu.committedInstType_0::FloatMemWrite            0      0.00%    100.00% # Class of committed instruction (Count)
system.cpu.committedInstType_0::IprAccess            0      0.00%    100.00% # Class of committed instruction (Count)
system.cpu.committedInstType_0::InstPrefetch            0      0.00%    100.00% # Class of committed instruction (Count)
system.cpu.committedInstType_0::total        50730771                       # Class of committed instruction (Count)
system.cpu.branchPred.lookups                 6930964                       # Number of BP lookups (Count)
system.cpu.branchPred.condPredicted           5247419                       # Number of conditional branches predicted (Count)
system.cpu.branchPred.condIncorrect            104410                       # Number of conditional branches incorrect (Count)
system.cpu.branchPred.BTBLookups              3869623                       # Number of BTB lookups (Count)
system.cpu.branchPred.BTBHits                 3828538                       # Number of BTB hits (Count)
system.cpu.branchPred.BTBHitRatio            0.989383                       # BTB Hit Ratio (Ratio)
system.cpu.branchPred.RASUsed                  538137                       # Number of times the RAS was used to get a target. (Count)
system.cpu.branchPred.RASIncorrect                  5                       # Number of incorrect RAS predictions. (Count)
system.cpu.branchPred.indirectLookups           79341                       # Number of indirect predictor lookups. (Count)
system.cpu.branchPred.indirectHits              79056                       # Number of indirect target hits. (Count)
system.cpu.branchPred.indirectMisses              285                       # Number of indirect misses. (Count)
system.cpu.branchPred.indirectMispredicted         4207                       # Number of mispredicted indirect branches. (Count)
system.cpu.dcache.demandHits::cpu.data       16046044                       # number of demand (read+write) hits (Count)
system.cpu.dcache.demandHits::total          16046044                       # number of demand (read+write) hits (Count)
system.cpu.dcache.overallHits::cpu.data      16071695                       # number of overall hits (Count)
system.cpu.dcache.overallHits::total         16071695                       # number of overall hits (Count)
system.cpu.dcache.demandMisses::cpu.data        34275                       # number of demand (read+write) misses (Count)
system.cpu.dcache.demandMisses::total           34275                       # number of demand (read+write) misses (Count)
system.cpu.dcache.overallMisses::cpu.data        38408                       # number of overall misses (Count)
system.cpu.dcache.overallMisses::total          38408                       # number of overall misses (Count)
system.cpu.dcache.demandMissLatency::cpu.data   2004960500                       # number of demand (read+write) miss ticks (Tick)
system.cpu.dcache.demandMissLatency::total   2004960500                       # number of demand (read+write) miss ticks (Tick)
system.cpu.dcache.overallMissLatency::cpu.data   2004960500                       # number of overall miss ticks (Tick)
system.cpu.dcache.overallMissLatency::total   2004960500                       # number of overall miss ticks (Tick)
system.cpu.dcache.demandAccesses::cpu.data     16080319                       # number of demand (read+write) accesses (Count)
system.cpu.dcache.demandAccesses::total      16080319                       # number of demand (read+write) accesses (Count)
system.cpu.dcache.overallAccesses::cpu.data     16110103                       # number of overall (read+write) accesses (Count)
system.cpu.dcache.overallAccesses::total     16110103                       # number of overall (read+write) accesses (Count)
system.cpu.dcache.demandMissRate::cpu.data     0.002131                       # miss rate for demand accesses (Ratio)
system.cpu.dcache.demandMissRate::total      0.002131                       # miss rate for demand accesses (Ratio)
system.cpu.dcache.overallMissRate::cpu.data     0.002384                       # miss rate for overall accesses (Ratio)
system.cpu.dcache.overallMissRate::total     0.002384                       # miss rate for overall accesses (Ratio)
system.cpu.dcache.demandAvgMissLatency::cpu.data 58496.294675                       # average overall miss latency ((Cycle/Count))
system.cpu.dcache.demandAvgMissLatency::total 58496.294675                       # average overall miss latency ((Cycle/Count))
system.cpu.dcache.overallAvgMissLatency::cpu.data 52201.637680                       # average overall miss latency ((Cycle/Count))
system.cpu.dcache.overallAvgMissLatency::total 52201.637680                       # average overall miss latency ((Cycle/Count))
system.cpu.dcache.blockedCycles::no_mshrs            0                       # number of cycles access was blocked (Cycle)
system.cpu.dcache.blockedCycles::no_targets            0                       # number of cycles access was blocked (Cycle)
system.cpu.dcache.blockedCauses::no_mshrs            0                       # number of times access was blocked (Count)
system.cpu.dcache.blockedCauses::no_targets            0                       # number of times access was blocked (Count)
system.cpu.dcache.avgBlocked::no_mshrs            nan                       # average number of cycles each access was blocked ((Cycle/Count))
system.cpu.dcache.avgBlocked::no_targets          nan                       # average number of cycles each access was blocked ((Cycle/Count))
system.cpu.dcache.writebacks::writebacks        12719                       # number of writebacks (Count)
system.cpu.dcache.writebacks::total             12719                       # number of writebacks (Count)
system.cpu.dcache.demandMshrHits::cpu.data         7928                       # number of demand (read+write) MSHR hits (Count)
system.cpu.dcache.demandMshrHits::total          7928                       # number of demand (read+write) MSHR hits (Count)
system.cpu.dcache.overallMshrHits::cpu.data         7928                       # number of overall MSHR hits (Count)
system.cpu.dcache.overallMshrHits::total         7928                       # number of overall MSHR hits (Count)
system.cpu.dcache.demandMshrMisses::cpu.data        26347                       # number of demand (read+write) MSHR misses (Count)
system.cpu.dcache.demandMshrMisses::total        26347                       # number of demand (read+write) MSHR misses (Count)
system.cpu.dcache.overallMshrMisses::cpu.data        30480                       # number of overall MSHR misses (Count)
system.cpu.dcache.overallMshrMisses::total        30480                       # number of overall MSHR misses (Count)
system.cpu.dcache.demandMshrMissLatency::cpu.data   1489752250                       # number of demand (read+write) MSHR miss ticks (Tick)
system.cpu.dcache.demandMshrMissLatency::total   1489752250                       # number of demand (read+write) MSHR miss ticks (Tick)
system.cpu.dcache.overallMshrMissLatency::cpu.data   1752077250                       # number of overall MSHR miss ticks (Tick)
system.cpu.dcache.overallMshrMissLatency::total   1752077250                       # number of overall MSHR miss ticks (Tick)
system.cpu.dcache.demandMshrMissRate::cpu.data     0.001638                       # mshr miss ratio for demand accesses (Ratio)
system.cpu.dcache.demandMshrMissRate::total     0.001638                       # mshr miss ratio for demand accesses (Ratio)
system.cpu.dcache.overallMshrMissRate::cpu.data     0.001892                       # mshr miss ratio for overall accesses (Ratio)
system.cpu.dcache.overallMshrMissRate::total     0.001892                       # mshr miss ratio for overall accesses (Ratio)
system.cpu.dcache.demandAvgMshrMissLatency::cpu.data 56543.524879                       # average overall mshr miss latency ((Cycle/Count))
system.cpu.dcache.demandAvgMshrMissLatency::total 56543.524879                       # average overall mshr miss latency ((Cycle/Count))
system.cpu.dcache.overallAvgMshrMissLatency::cpu.data 57482.849409                       # average overall mshr miss latency ((Cycle/Count))
system.cpu.dcache.overallAvgMshrMissLatency::total 57482.849409                       # average overall mshr miss latency ((Cycle/Count))
system.cpu.dcache.replacements                  29969                       # number of replacements (Count)
system.cpu.dcache.LoadLockedReq.hits::cpu.data            4                       # number of LoadLockedReq hits (Count)
system.cpu.dcache.LoadLockedReq.hits::total            4                       # number of LoadLockedReq hits (Count)
system.cpu.dcache.LoadLockedReq.accesses::cpu.data            4                       # number of LoadLockedReq accesses(hits+misses) (Count)
system.cpu.dcache.LoadLockedReq.accesses::total            4                       # number of LoadLockedReq accesses(hits+misses) (Count)
system.cpu.dcache.ReadReq.hits::cpu.data     10754219                       # number of ReadReq hits (Count)
system.cpu.dcache.ReadReq.hits::total        10754219                       # number of ReadReq hits (Count)
system.cpu.dcache.ReadReq.misses::cpu.data        30765                       # number of ReadReq misses (Count)
system.cpu.dcache.ReadReq.misses::total         30765                       # number of ReadReq misses (Count)
system.cpu.dcache.ReadReq.missLatency::cpu.data   1857331000                       # number of ReadReq miss ticks (Tick)
system.cpu.dcache.ReadReq.missLatency::total   1857331000                       # number of ReadReq miss ticks (Tick)
system.cpu.dcache.ReadReq.accesses::cpu.data     10784984                       # number of ReadReq accesses(hits+misses) (Count)
system.cpu.dcache.ReadReq.accesses::total     10784984                       # number of ReadReq accesses(hits+misses) (Count)
system.cpu.dcache.ReadReq.missRate::cpu.data     0.002853                       # miss rate for ReadReq accesses (Ratio)
system.cpu.dcache.ReadReq.missRate::total     0.002853                       # miss rate for ReadReq accesses (Ratio)
system.cpu.dcache.ReadReq.avgMissLatency::cpu.data 60371.558589                       # average ReadReq miss latency ((Tick/Count))
system.cpu.dcache.ReadReq.avgMissLatency::total 60371.558589                       # average ReadReq miss latency ((Tick/Count))
system.cpu.dcache.ReadReq.mshrHits::cpu.data         7747                       # number of ReadReq MSHR hits (Count)
system.cpu.dcache.ReadReq.mshrHits::total         7747                       # number of ReadReq MSHR hits (Count)
system.cpu.dcache.ReadReq.mshrMisses::cpu.data        23018                       # number of ReadReq MSHR misses (Count)
system.cpu.dcache.ReadReq.mshrMisses::total        23018                       # number of ReadReq MSHR misses (Count)
system.cpu.dcache.ReadReq.mshrMissLatency::cpu.data   1355320500                       # number of ReadReq MSHR miss ticks (Tick)
system.cpu.dcache.ReadReq.mshrMissLatency::total   1355320500                       # number of ReadReq MSHR miss ticks (Tick)
system.cpu.dcache.ReadReq.mshrMissRate::cpu.data     0.002134                       # mshr miss rate for ReadReq accesses (Ratio)
system.cpu.dcache.ReadReq.mshrMissRate::total     0.002134                       # mshr miss rate for ReadReq accesses (Ratio)
system.cpu.dcache.ReadReq.avgMshrMissLatency::cpu.data 58880.897558                       # average ReadReq mshr miss latency ((Tick/Count))
system.cpu.dcache.ReadReq.avgMshrMissLatency::total 58880.897558                       # average ReadReq mshr miss latency ((Tick/Count))
system.cpu.dcache.SoftPFReq.hits::cpu.data        25651                       # number of SoftPFReq hits (Count)
system.cpu.dcache.SoftPFReq.hits::total         25651                       # number of SoftPFReq hits (Count)
system.cpu.dcache.SoftPFReq.misses::cpu.data         4133                       # number of SoftPFReq misses (Count)
system.cpu.dcache.SoftPFReq.misses::total         4133                       # number of SoftPFReq misses (Count)
system.cpu.dcache.SoftPFReq.accesses::cpu.data        29784                       # number of SoftPFReq accesses(hits+misses) (Count)
system.cpu.dcache.SoftPFReq.accesses::total        29784                       # number of SoftPFReq accesses(hits+misses) (Count)
system.cpu.dcache.SoftPFReq.missRate::cpu.data     0.138766                       # miss rate for SoftPFReq accesses (Ratio)
system.cpu.dcache.SoftPFReq.missRate::total     0.138766                       # miss rate for SoftPFReq accesses (Ratio)
system.cpu.dcache.SoftPFReq.mshrMisses::cpu.data         4133                       # number of SoftPFReq MSHR misses (Count)
system.cpu.dcache.SoftPFReq.mshrMisses::total         4133                       # number of SoftPFReq MSHR misses (Count)
system.cpu.dcache.SoftPFReq.mshrMissLatency::cpu.data    262325000                       # number of SoftPFReq MSHR miss ticks (Tick)
system.cpu.dcache.SoftPFReq.mshrMissLatency::total    262325000                       # number of SoftPFReq MSHR miss ticks (Tick)
system.cpu.dcache.SoftPFReq.mshrMissRate::cpu.data     0.138766                       # mshr miss rate for SoftPFReq accesses (Ratio)
system.cpu.dcache.SoftPFReq.mshrMissRate::total     0.138766                       # mshr miss rate for SoftPFReq accesses (Ratio)
system.cpu.dcache.SoftPFReq.avgMshrMissLatency::cpu.data 63470.844423                       # average SoftPFReq mshr miss latency ((Tick/Count))
system.cpu.dcache.SoftPFReq.avgMshrMissLatency::total 63470.844423                       # average SoftPFReq mshr miss latency ((Tick/Count))
system.cpu.dcache.StoreCondReq.hits::cpu.data            4                       # number of StoreCondReq hits (Count)
system.cpu.dcache.StoreCondReq.hits::total            4                       # number of StoreCondReq hits (Count)
system.cpu.dcache.StoreCondReq.accesses::cpu.data            4                       # number of StoreCondReq accesses(hits+misses) (Count)
system.cpu.dcache.StoreCondReq.accesses::total            4                       # number of StoreCondReq accesses(hits+misses) (Count)
system.cpu.dcache.SwapReq.hits::cpu.data           19                       # number of SwapReq hits (Count)
system.cpu.dcache.SwapReq.hits::total              19                       # number of SwapReq hits (Count)
system.cpu.dcache.SwapReq.misses::cpu.data            1                       # number of SwapReq misses (Count)
system.cpu.dcache.SwapReq.misses::total             1                       # number of SwapReq misses (Count)
system.cpu.dcache.SwapReq.missLatency::cpu.data        55000                       # number of SwapReq miss ticks (Tick)
system.cpu.dcache.SwapReq.missLatency::total        55000                       # number of SwapReq miss ticks (Tick)
system.cpu.dcache.SwapReq.accesses::cpu.data           20                       # number of SwapReq accesses(hits+misses) (Count)
system.cpu.dcache.SwapReq.accesses::total           20                       # number of SwapReq accesses(hits+misses) (Count)
system.cpu.dcache.SwapReq.missRate::cpu.data     0.050000                       # miss rate for SwapReq accesses (Ratio)
system.cpu.dcache.SwapReq.missRate::total     0.050000                       # miss rate for SwapReq accesses (Ratio)
system.cpu.dcache.SwapReq.avgMissLatency::cpu.data        55000                       # average SwapReq miss latency ((Tick/Count))
system.cpu.dcache.SwapReq.avgMissLatency::total        55000                       # average SwapReq miss latency ((Tick/Count))
system.cpu.dcache.SwapReq.mshrMisses::cpu.data            1                       # number of SwapReq MSHR misses (Count)
system.cpu.dcache.SwapReq.mshrMisses::total            1                       # number of SwapReq MSHR misses (Count)
system.cpu.dcache.SwapReq.mshrMissLatency::cpu.data        54000                       # number of SwapReq MSHR miss ticks (Tick)
system.cpu.dcache.SwapReq.mshrMissLatency::total        54000                       # number of SwapReq MSHR miss ticks (Tick)
system.cpu.dcache.SwapReq.mshrMissRate::cpu.data     0.050000                       # mshr miss rate for SwapReq accesses (Ratio)
system.cpu.dcache.SwapReq.mshrMissRate::total     0.050000                       # mshr miss rate for SwapReq accesses (Ratio)
system.cpu.dcache.SwapReq.avgMshrMissLatency::cpu.data        54000                       # average SwapReq mshr miss latency ((Tick/Count))
system.cpu.dcache.SwapReq.avgMshrMissLatency::total        54000                       # average SwapReq mshr miss latency ((Tick/Count))
system.cpu.dcache.WriteLineReq.misses::cpu.data         1540                       # number of WriteLineReq misses (Count)
system.cpu.dcache.WriteLineReq.misses::total         1540                       # number of WriteLineReq misses (Count)
system.cpu.dcache.WriteLineReq.missLatency::cpu.data     19855500                       # number of WriteLineReq miss ticks (Tick)
system.cpu.dcache.WriteLineReq.missLatency::total     19855500                       # number of WriteLineReq miss ticks (Tick)
system.cpu.dcache.WriteLineReq.accesses::cpu.data         1540                       # number of WriteLineReq accesses(hits+misses) (Count)
system.cpu.dcache.WriteLineReq.accesses::total         1540                       # number of WriteLineReq accesses(hits+misses) (Count)
system.cpu.dcache.WriteLineReq.missRate::cpu.data            1                       # miss rate for WriteLineReq accesses (Ratio)
system.cpu.dcache.WriteLineReq.missRate::total            1                       # miss rate for WriteLineReq accesses (Ratio)
system.cpu.dcache.WriteLineReq.avgMissLatency::cpu.data 12893.181818                       # average WriteLineReq miss latency ((Tick/Count))
system.cpu.dcache.WriteLineReq.avgMissLatency::total 12893.181818                       # average WriteLineReq miss latency ((Tick/Count))
system.cpu.dcache.WriteLineReq.mshrMisses::cpu.data         1540                       # number of WriteLineReq MSHR misses (Count)
system.cpu.dcache.WriteLineReq.mshrMisses::total         1540                       # number of WriteLineReq MSHR misses (Count)
system.cpu.dcache.WriteLineReq.mshrMissLatency::cpu.data     18315250                       # number of WriteLineReq MSHR miss ticks (Tick)
system.cpu.dcache.WriteLineReq.mshrMissLatency::total     18315250                       # number of WriteLineReq MSHR miss ticks (Tick)
system.cpu.dcache.WriteLineReq.mshrMissRate::cpu.data            1                       # mshr miss rate for WriteLineReq accesses (Ratio)
system.cpu.dcache.WriteLineReq.mshrMissRate::total            1                       # mshr miss rate for WriteLineReq accesses (Ratio)
system.cpu.dcache.WriteLineReq.avgMshrMissLatency::cpu.data 11893.019481                       # average WriteLineReq mshr miss latency ((Tick/Count))
system.cpu.dcache.WriteLineReq.avgMshrMissLatency::total 11893.019481                       # average WriteLineReq mshr miss latency ((Tick/Count))
system.cpu.dcache.WriteReq.hits::cpu.data      5291825                       # number of WriteReq hits (Count)
system.cpu.dcache.WriteReq.hits::total        5291825                       # number of WriteReq hits (Count)
system.cpu.dcache.WriteReq.misses::cpu.data         1970                       # number of WriteReq misses (Count)
system.cpu.dcache.WriteReq.misses::total         1970                       # number of WriteReq misses (Count)
system.cpu.dcache.WriteReq.missLatency::cpu.data    127774000                       # number of WriteReq miss ticks (Tick)
system.cpu.dcache.WriteReq.missLatency::total    127774000                       # number of WriteReq miss ticks (Tick)
system.cpu.dcache.WriteReq.accesses::cpu.data      5293795                       # number of WriteReq accesses(hits+misses) (Count)
system.cpu.dcache.WriteReq.accesses::total      5293795                       # number of WriteReq accesses(hits+misses) (Count)
system.cpu.dcache.WriteReq.missRate::cpu.data     0.000372                       # miss rate for WriteReq accesses (Ratio)
system.cpu.dcache.WriteReq.missRate::total     0.000372                       # miss rate for WriteReq accesses (Ratio)
system.cpu.dcache.WriteReq.avgMissLatency::cpu.data 64859.898477                       # average WriteReq miss latency ((Tick/Count))
system.cpu.dcache.WriteReq.avgMissLatency::total 64859.898477                       # average WriteReq miss latency ((Tick/Count))
system.cpu.dcache.WriteReq.mshrHits::cpu.data          181                       # number of WriteReq MSHR hits (Count)
system.cpu.dcache.WriteReq.mshrHits::total          181                       # number of WriteReq MSHR hits (Count)
system.cpu.dcache.WriteReq.mshrMisses::cpu.data         1789                       # number of WriteReq MSHR misses (Count)
system.cpu.dcache.WriteReq.mshrMisses::total         1789                       # number of WriteReq MSHR misses (Count)
system.cpu.dcache.WriteReq.mshrMissLatency::cpu.data    116116500                       # number of WriteReq MSHR miss ticks (Tick)
system.cpu.dcache.WriteReq.mshrMissLatency::total    116116500                       # number of WriteReq MSHR miss ticks (Tick)
system.cpu.dcache.WriteReq.mshrMissRate::cpu.data     0.000338                       # mshr miss rate for WriteReq accesses (Ratio)
system.cpu.dcache.WriteReq.mshrMissRate::total     0.000338                       # mshr miss rate for WriteReq accesses (Ratio)
system.cpu.dcache.WriteReq.avgMshrMissLatency::cpu.data 64905.813304                       # average WriteReq mshr miss latency ((Tick/Count))
system.cpu.dcache.WriteReq.avgMshrMissLatency::total 64905.813304                       # average WriteReq mshr miss latency ((Tick/Count))
system.cpu.dcache.power_state.pwrStateResidencyTicks::UNDEFINED  31451981000                       # Cumulative time (in ticks) in various power states (Tick)
system.cpu.dcache.tags.tagsInUse           511.595341                       # Average ticks per tags in use ((Tick/Count))
system.cpu.dcache.tags.totalRefs             16102203                       # Total number of references to valid blocks. (Count)
system.cpu.dcache.tags.sampledRefs              30481                       # Sample count of references to valid blocks. (Count)
system.cpu.dcache.tags.avgRefs             528.270168                       # Average number of references to valid blocks. ((Count/Count))
system.cpu.dcache.tags.warmupTick              145000                       # The tick when the warmup percentage was hit. (Tick)
system.cpu.dcache.tags.occupancies::cpu.data   511.595341                       # Average occupied blocks per tick, per requestor ((Count/Tick))
system.cpu.dcache.tags.avgOccs::cpu.data     0.999210                       # Average percentage of cache occupancy ((Ratio/Tick))
system.cpu.dcache.tags.avgOccs::total        0.999210                       # Average percentage of cache occupancy ((Ratio/Tick))
system.cpu.dcache.tags.occupanciesTaskId::1024          512                       # Occupied blocks per task id (Count)
system.cpu.dcache.tags.ageTaskId_1024::0           36                       # Occupied blocks per task id, per block age (Count)
system.cpu.dcache.tags.ageTaskId_1024::1          463                       # Occupied blocks per task id, per block age (Count)
system.cpu.dcache.tags.ageTaskId_1024::2           13                       # Occupied blocks per task id, per block age (Count)
system.cpu.dcache.tags.ratioOccsTaskId::1024            1                       # Ratio of occupied blocks and all blocks, per task id (Ratio)
system.cpu.dcache.tags.tagAccesses           32250743                       # Number of tag accesses (Count)
system.cpu.dcache.tags.dataAccesses          32250743                       # Number of data accesses (Count)
system.cpu.dcache.tags.power_state.pwrStateResidencyTicks::UNDEFINED  31451981000                       # Cumulative time (in ticks) in various power states (Tick)
system.cpu.fetch2.intInstructions            26284865                       # Number of integer instructions successfully decoded (Count)
system.cpu.fetch2.fpInstructions                    0                       # Number of floating point instructions successfully decoded (Count)
system.cpu.fetch2.vecInstructions              994416                       # Number of SIMD instructions successfully decoded (Count)
system.cpu.fetch2.loadInstructions            9416375                       # Number of memory load instructions successfully decoded (Count)
system.cpu.fetch2.storeInstructions           3043667                       # Number of memory store instructions successfully decoded (Count)
system.cpu.fetch2.amoInstructions                  23                       # Number of memory atomic instructions successfully decoded (Count)
system.cpu.icache.demandHits::cpu.inst       13178842                       # number of demand (read+write) hits (Count)
system.cpu.icache.demandHits::total          13178842                       # number of demand (read+write) hits (Count)
system.cpu.icache.overallHits::cpu.inst      13178842                       # number of overall hits (Count)
system.cpu.icache.overallHits::total         13178842                       # number of overall hits (Count)
system.cpu.icache.demandMisses::cpu.inst        78917                       # number of demand (read+write) misses (Count)
system.cpu.icache.demandMisses::total           78917                       # number of demand (read+write) misses (Count)
system.cpu.icache.overallMisses::cpu.inst        78917                       # number of overall misses (Count)
system.cpu.icache.overallMisses::total          78917                       # number of overall misses (Count)
system.cpu.icache.demandMissLatency::cpu.inst   1857129500                       # number of demand (read+write) miss ticks (Tick)
system.cpu.icache.demandMissLatency::total   1857129500                       # number of demand (read+write) miss ticks (Tick)
system.cpu.icache.overallMissLatency::cpu.inst   1857129500                       # number of overall miss ticks (Tick)
system.cpu.icache.overallMissLatency::total   1857129500                       # number of overall miss ticks (Tick)
system.cpu.icache.demandAccesses::cpu.inst     13257759                       # number of demand (read+write) accesses (Count)
system.cpu.icache.demandAccesses::total      13257759                       # number of demand (read+write) accesses (Count)
system.cpu.icache.overallAccesses::cpu.inst     13257759                       # number of overall (read+write) accesses (Count)
system.cpu.icache.overallAccesses::total     13257759                       # number of overall (read+write) accesses (Count)
system.cpu.icache.demandMissRate::cpu.inst     0.005953                       # miss rate for demand accesses (Ratio)
system.cpu.icache.demandMissRate::total      0.005953                       # miss rate for demand accesses (Ratio)
system.cpu.icache.overallMissRate::cpu.inst     0.005953                       # miss rate for overall accesses (Ratio)
system.cpu.icache.overallMissRate::total     0.005953                       # miss rate for overall accesses (Ratio)
system.cpu.icache.demandAvgMissLatency::cpu.inst 23532.692576                       # average overall miss latency ((Cycle/Count))
system.cpu.icache.demandAvgMissLatency::total 23532.692576                       # average overall miss latency ((Cycle/Count))
system.cpu.icache.overallAvgMissLatency::cpu.inst 23532.692576                       # average overall miss latency ((Cycle/Count))
system.cpu.icache.overallAvgMissLatency::total 23532.692576                       # average overall miss latency ((Cycle/Count))
system.cpu.icache.blockedCycles::no_mshrs            0                       # number of cycles access was blocked (Cycle)
system.cpu.icache.blockedCycles::no_targets            0                       # number of cycles access was blocked (Cycle)
system.cpu.icache.blockedCauses::no_mshrs            0                       # number of times access was blocked (Count)
system.cpu.icache.blockedCauses::no_targets            0                       # number of times access was blocked (Count)
system.cpu.icache.avgBlocked::no_mshrs            nan                       # average number of cycles each access was blocked ((Cycle/Count))
system.cpu.icache.avgBlocked::no_targets          nan                       # average number of cycles each access was blocked ((Cycle/Count))
system.cpu.icache.writebacks::writebacks        78427                       # number of writebacks (Count)
system.cpu.icache.writebacks::total             78427                       # number of writebacks (Count)
system.cpu.icache.demandMshrMisses::cpu.inst        78917                       # number of demand (read+write) MSHR misses (Count)
system.cpu.icache.demandMshrMisses::total        78917                       # number of demand (read+write) MSHR misses (Count)
system.cpu.icache.overallMshrMisses::cpu.inst        78917                       # number of overall MSHR misses (Count)
system.cpu.icache.overallMshrMisses::total        78917                       # number of overall MSHR misses (Count)
system.cpu.icache.demandMshrMissLatency::cpu.inst   1778213500                       # number of demand (read+write) MSHR miss ticks (Tick)
system.cpu.icache.demandMshrMissLatency::total   1778213500                       # number of demand (read+write) MSHR miss ticks (Tick)
system.cpu.icache.overallMshrMissLatency::cpu.inst   1778213500                       # number of overall MSHR miss ticks (Tick)
system.cpu.icache.overallMshrMissLatency::total   1778213500                       # number of overall MSHR miss ticks (Tick)
system.cpu.icache.demandMshrMissRate::cpu.inst     0.005953                       # mshr miss ratio for demand accesses (Ratio)
system.cpu.icache.demandMshrMissRate::total     0.005953                       # mshr miss ratio for demand accesses (Ratio)
system.cpu.icache.overallMshrMissRate::cpu.inst     0.005953                       # mshr miss ratio for overall accesses (Ratio)
system.cpu.icache.overallMshrMissRate::total     0.005953                       # mshr miss ratio for overall accesses (Ratio)
system.cpu.icache.demandAvgMshrMissLatency::cpu.inst 22532.705247                       # average overall mshr miss latency ((Cycle/Count))
system.cpu.icache.demandAvgMshrMissLatency::total 22532.705247                       # average overall mshr miss latency ((Cycle/Count))
system.cpu.icache.overallAvgMshrMissLatency::cpu.inst 22532.705247                       # average overall mshr miss latency ((Cycle/Count))
system.cpu.icache.overallAvgMshrMissLatency::total 22532.705247                       # average overall mshr miss latency ((Cycle/Count))
system.cpu.icache.replacements                  78427                       # number of replacements (Count)
system.cpu.icache.ReadReq.hits::cpu.inst     13178842                       # number of ReadReq hits (Count)
system.cpu.icache.ReadReq.hits::total        13178842                       # number of ReadReq hits (Count)
system.cpu.icache.ReadReq.misses::cpu.inst        78917                       # number of ReadReq misses (Count)
system.cpu.icache.ReadReq.misses::total         78917                       # number of ReadReq misses (Count)
system.cpu.icache.ReadReq.missLatency::cpu.inst   1857129500                       # number of ReadReq miss ticks (Tick)
system.cpu.icache.ReadReq.missLatency::total   1857129500                       # number of ReadReq miss ticks (Tick)
system.cpu.icache.ReadReq.accesses::cpu.inst     13257759                       # number of ReadReq accesses(hits+misses) (Count)
system.cpu.icache.ReadReq.accesses::total     13257759                       # number of ReadReq accesses(hits+misses) (Count)
system.cpu.icache.ReadReq.missRate::cpu.inst     0.005953                       # miss rate for ReadReq accesses (Ratio)
system.cpu.icache.ReadReq.missRate::total     0.005953                       # miss rate for ReadReq accesses (Ratio)
system.cpu.icache.ReadReq.avgMissLatency::cpu.inst 23532.692576                       # average ReadReq miss latency ((Tick/Count))
system.cpu.icache.ReadReq.avgMissLatency::total 23532.692576                       # average ReadReq miss latency ((Tick/Count))
system.cpu.icache.ReadReq.mshrMisses::cpu.inst        78917                       # number of ReadReq MSHR misses (Count)
system.cpu.icache.ReadReq.mshrMisses::total        78917                       # number of ReadReq MSHR misses (Count)
system.cpu.icache.ReadReq.mshrMissLatency::cpu.inst   1778213500                       # number of ReadReq MSHR miss ticks (Tick)
system.cpu.icache.ReadReq.mshrMissLatency::total   1778213500                       # number of ReadReq MSHR miss ticks (Tick)
system.cpu.icache.ReadReq.mshrMissRate::cpu.inst     0.005953                       # mshr miss rate for ReadReq accesses (Ratio)
system.cpu.icache.ReadReq.mshrMissRate::total     0.005953                       # mshr miss rate for ReadReq accesses (Ratio)
system.cpu.icache.ReadReq.avgMshrMissLatency::cpu.inst 22532.705247                       # average ReadReq mshr miss latency ((Tick/Count))
system.cpu.icache.ReadReq.avgMshrMissLatency::total 22532.705247                       # average ReadReq mshr miss latency ((Tick/Count))
system.cpu.icache.power_state.pwrStateResidencyTicks::UNDEFINED  31451981000                       # Cumulative time (in ticks) in various power states (Tick)
system.cpu.icache.tags.tagsInUse           426.293631                       # Average ticks per tags in use ((Tick/Count))
system.cpu.icache.tags.totalRefs             13257758                       # Total number of references to valid blocks. (Count)
system.cpu.icache.tags.sampledRefs              78916                       # Sample count of references to valid blocks. (Count)
system.cpu.icache.tags.avgRefs             167.998353                       # Average number of references to valid blocks. ((Count/Count))
system.cpu.icache.tags.warmupTick               77000                       # The tick when the warmup percentage was hit. (Tick)
system.cpu.icache.tags.occupancies::cpu.inst   426.293631                       # Average occupied blocks per tick, per requestor ((Count/Tick))
system.cpu.icache.tags.avgOccs::cpu.inst     0.832605                       # Average percentage of cache occupancy ((Ratio/Tick))
system.cpu.icache.tags.avgOccs::total        0.832605                       # Average percentage of cache occupancy ((Ratio/Tick))
system.cpu.icache.tags.occupanciesTaskId::1024          489                       # Occupied blocks per task id (Count)
system.cpu.icache.tags.ageTaskId_1024::0          129                       # Occupied blocks per task id, per block age (Count)
system.cpu.icache.tags.ageTaskId_1024::1           28                       # Occupied blocks per task id, per block age (Count)
system.cpu.icache.tags.ageTaskId_1024::2           27                       # Occupied blocks per task id, per block age (Count)
system.cpu.icache.tags.ageTaskId_1024::3           87                       # Occupied blocks per task id, per block age (Count)
system.cpu.icache.tags.ageTaskId_1024::4          218                       # Occupied blocks per task id, per block age (Count)
system.cpu.icache.tags.ratioOccsTaskId::1024     0.955078                       # Ratio of occupied blocks and all blocks, per task id (Ratio)
system.cpu.icache.tags.tagAccesses           26594434                       # Number of tag accesses (Count)
system.cpu.icache.tags.dataAccesses          26594434                       # Number of data accesses (Count)
system.cpu.icache.tags.power_state.pwrStateResidencyTicks::UNDEFINED  31451981000                       # Cumulative time (in ticks) in various power states (Tick)
system.cpu.mmu.alignFaults                          0                       # Number of MMU faults due to alignment restrictions (Count)
system.cpu.mmu.prefetchFaults                       0                       # Number of MMU faults due to prefetch (Count)
system.cpu.mmu.domainFaults                         0                       # Number of MMU faults due to domain restrictions (Count)
system.cpu.mmu.permsFaults                          0                       # Number of MMU faults due to permissions restrictions (Count)
system.cpu.mmu.dtb.readHits                         0                       # Read hits (Count)
system.cpu.mmu.dtb.readMisses                       0                       # Read misses (Count)
system.cpu.mmu.dtb.writeHits                        0                       # Write hits (Count)
system.cpu.mmu.dtb.writeMisses                      0                       # Write misses (Count)
system.cpu.mmu.dtb.inserts                          0                       # Number of times an entry is inserted into the TLB (Count)
system.cpu.mmu.dtb.flushTlb                         1                       # Number of times complete TLB was flushed (Count)
system.cpu.mmu.dtb.flushTlbMva                      0                       # Number of times TLB was flushed by MVA (Count)
system.cpu.mmu.dtb.flushTlbMvaAsid                  0                       # Number of times TLB was flushed by MVA & ASID (Count)
system.cpu.mmu.dtb.flushTlbAsid                     0                       # Number of times TLB was flushed by ASID (Count)
system.cpu.mmu.dtb.flushedEntries                   0                       # Number of entries that have been flushed from TLB (Count)
system.cpu.mmu.dtb.readAccesses                     0                       # Read accesses (Count)
system.cpu.mmu.dtb.writeAccesses                    0                       # Write accesses (Count)
system.cpu.mmu.dtb.hits                             0                       # Total TLB (inst and data) hits (Count)
system.cpu.mmu.dtb.misses                           0                       # Total TLB (inst and data) misses (Count)
system.cpu.mmu.dtb.accesses                         0                       # Total TLB (inst and data) accesses (Count)
system.cpu.mmu.dtb_walker.walks                     0                       # Table walker walks requested (Count)
system.cpu.mmu.dtb_walker.requestOrigin_Requested::Data            0                       # Table walker requests started/completed, data/inst (Count)
system.cpu.mmu.dtb_walker.requestOrigin_Requested::Inst            0                       # Table walker requests started/completed, data/inst (Count)
system.cpu.mmu.dtb_walker.requestOrigin_Requested::total            0                       # Table walker requests started/completed, data/inst (Count)
system.cpu.mmu.dtb_walker.requestOrigin_Completed::Data            0                       # Table walker requests started/completed, data/inst (Count)
system.cpu.mmu.dtb_walker.requestOrigin_Completed::Inst            0                       # Table walker requests started/completed, data/inst (Count)
system.cpu.mmu.dtb_walker.requestOrigin_Completed::total            0                       # Table walker requests started/completed, data/inst (Count)
system.cpu.mmu.dtb_walker.requestOrigin::total            0                       # Table walker requests started/completed, data/inst (Count)
system.cpu.mmu.dtb_walker.power_state.pwrStateResidencyTicks::UNDEFINED  31451981000                       # Cumulative time (in ticks) in various power states (Tick)
system.cpu.mmu.itb.instHits                         0                       # Inst hits (Count)
system.cpu.mmu.itb.instMisses                       0                       # Inst misses (Count)
system.cpu.mmu.itb.inserts                          0                       # Number of times an entry is inserted into the TLB (Count)
system.cpu.mmu.itb.flushTlb                         1                       # Number of times complete TLB was flushed (Count)
system.cpu.mmu.itb.flushTlbMva                      0                       # Number of times TLB was flushed by MVA (Count)
system.cpu.mmu.itb.flushTlbMvaAsid                  0                       # Number of times TLB was flushed by MVA & ASID (Count)
system.cpu.mmu.itb.flushTlbAsid                     0                       # Number of times TLB was flushed by ASID (Count)
system.cpu.mmu.itb.flushedEntries                   0                       # Number of entries that have been flushed from TLB (Count)
system.cpu.mmu.itb.instAccesses                     0                       # Inst accesses (Count)
system.cpu.mmu.itb.hits                             0                       # Total TLB (inst and data) hits (Count)
system.cpu.mmu.itb.misses                           0                       # Total TLB (inst and data) misses (Count)
system.cpu.mmu.itb.accesses                         0                       # Total TLB (inst and data) accesses (Count)
system.cpu.mmu.itb_walker.walks                     0                       # Table walker walks requested (Count)
system.cpu.mmu.itb_walker.requestOrigin_Requested::Data            0                       # Table walker requests started/completed, data/inst (Count)
system.cpu.mmu.itb_walker.requestOrigin_Requested::Inst            0                       # Table walker requests started/completed, data/inst (Count)
system.cpu.mmu.itb_walker.requestOrigin_Requested::total            0                       # Table walker requests started/completed, data/inst (Count)
system.cpu.mmu.itb_walker.requestOrigin_Completed::Data            0                       # Table walker requests started/completed, data/inst (Count)
system.cpu.mmu.itb_walker.requestOrigin_Completed::Inst            0                       # Table walker requests started/completed, data/inst (Count)
system.cpu.mmu.itb_walker.requestOrigin_Completed::total            0                       # Table walker requests started/completed, data/inst (Count)
system.cpu.mmu.itb_walker.requestOrigin::total            0                       # Table walker requests started/completed, data/inst (Count)
system.cpu.mmu.itb_walker.power_state.pwrStateResidencyTicks::UNDEFINED  31451981000                       # Cumulative time (in ticks) in various power states (Tick)
system.cpu.mmu.l2_shared.instHits                   0                       # Inst hits (Count)
system.cpu.mmu.l2_shared.instMisses                 0                       # Inst misses (Count)
system.cpu.mmu.l2_shared.inserts                    0                       # Number of times an entry is inserted into the TLB (Count)
system.cpu.mmu.l2_shared.flushTlb                   1                       # Number of times complete TLB was flushed (Count)
system.cpu.mmu.l2_shared.flushTlbMva                0                       # Number of times TLB was flushed by MVA (Count)
system.cpu.mmu.l2_shared.flushTlbMvaAsid            0                       # Number of times TLB was flushed by MVA & ASID (Count)
system.cpu.mmu.l2_shared.flushTlbAsid               0                       # Number of times TLB was flushed by ASID (Count)
system.cpu.mmu.l2_shared.flushedEntries             0                       # Number of entries that have been flushed from TLB (Count)
system.cpu.mmu.l2_shared.instAccesses               0                       # Inst accesses (Count)
system.cpu.mmu.l2_shared.hits                       0                       # Total TLB (inst and data) hits (Count)
system.cpu.mmu.l2_shared.misses                     0                       # Total TLB (inst and data) misses (Count)
system.cpu.mmu.l2_shared.accesses                   0                       # Total TLB (inst and data) accesses (Count)
system.cpu.mmu.stage2_dtb.readHits                  0                       # Read hits (Count)
system.cpu.mmu.stage2_dtb.readMisses                0                       # Read misses (Count)
system.cpu.mmu.stage2_dtb.writeHits                 0                       # Write hits (Count)
system.cpu.mmu.stage2_dtb.writeMisses               0                       # Write misses (Count)
system.cpu.mmu.stage2_dtb.inserts                   0                       # Number of times an entry is inserted into the TLB (Count)
system.cpu.mmu.stage2_dtb.flushTlb                  1                       # Number of times complete TLB was flushed (Count)
system.cpu.mmu.stage2_dtb.flushTlbMva               0                       # Number of times TLB was flushed by MVA (Count)
system.cpu.mmu.stage2_dtb.flushTlbMvaAsid            0                       # Number of times TLB was flushed by MVA & ASID (Count)
system.cpu.mmu.stage2_dtb.flushTlbAsid              0                       # Number of times TLB was flushed by ASID (Count)
system.cpu.mmu.stage2_dtb.flushedEntries            0                       # Number of entries that have been flushed from TLB (Count)
system.cpu.mmu.stage2_dtb.readAccesses              0                       # Read accesses (Count)
system.cpu.mmu.stage2_dtb.writeAccesses             0                       # Write accesses (Count)
system.cpu.mmu.stage2_dtb.hits                      0                       # Total TLB (inst and data) hits (Count)
system.cpu.mmu.stage2_dtb.misses                    0                       # Total TLB (inst and data) misses (Count)
system.cpu.mmu.stage2_dtb.accesses                  0                       # Total TLB (inst and data) accesses (Count)
system.cpu.mmu.stage2_dtb_walker.walks              0                       # Table walker walks requested (Count)
system.cpu.mmu.stage2_dtb_walker.requestOrigin_Requested::Data            0                       # Table walker requests started/completed, data/inst (Count)
system.cpu.mmu.stage2_dtb_walker.requestOrigin_Requested::Inst            0                       # Table walker requests started/completed, data/inst (Count)
system.cpu.mmu.stage2_dtb_walker.requestOrigin_Requested::total            0                       # Table walker requests started/completed, data/inst (Count)
system.cpu.mmu.stage2_dtb_walker.requestOrigin_Completed::Data            0                       # Table walker requests started/completed, data/inst (Count)
system.cpu.mmu.stage2_dtb_walker.requestOrigin_Completed::Inst            0                       # Table walker requests started/completed, data/inst (Count)
system.cpu.mmu.stage2_dtb_walker.requestOrigin_Completed::total            0                       # Table walker requests started/completed, data/inst (Count)
system.cpu.mmu.stage2_dtb_walker.requestOrigin::total            0                       # Table walker requests started/completed, data/inst (Count)
system.cpu.mmu.stage2_dtb_walker.power_state.pwrStateResidencyTicks::UNDEFINED  31451981000                       # Cumulative time (in ticks) in various power states (Tick)
system.cpu.mmu.stage2_itb.instHits                  0                       # Inst hits (Count)
system.cpu.mmu.stage2_itb.instMisses                0                       # Inst misses (Count)
system.cpu.mmu.stage2_itb.inserts                   0                       # Number of times an entry is inserted into the TLB (Count)
system.cpu.mmu.stage2_itb.flushTlb                  1                       # Number of times complete TLB was flushed (Count)
system.cpu.mmu.stage2_itb.flushTlbMva               0                       # Number of times TLB was flushed by MVA (Count)
system.cpu.mmu.stage2_itb.flushTlbMvaAsid            0                       # Number of times TLB was flushed by MVA & ASID (Count)
system.cpu.mmu.stage2_itb.flushTlbAsid              0                       # Number of times TLB was flushed by ASID (Count)
system.cpu.mmu.stage2_itb.flushedEntries            0                       # Number of entries that have been flushed from TLB (Count)
system.cpu.mmu.stage2_itb.instAccesses              0                       # Inst accesses (Count)
system.cpu.mmu.stage2_itb.hits                      0                       # Total TLB (inst and data) hits (Count)
system.cpu.mmu.stage2_itb.misses                    0                       # Total TLB (inst and data) misses (Count)
system.cpu.mmu.stage2_itb.accesses                  0                       # Total TLB (inst and data) accesses (Count)
system.cpu.mmu.stage2_itb_walker.walks              0                       # Table walker walks requested (Count)
system.cpu.mmu.stage2_itb_walker.requestOrigin_Requested::Data            0                       # Table walker requests started/completed, data/inst (Count)
system.cpu.mmu.stage2_itb_walker.requestOrigin_Requested::Inst            0                       # Table walker requests started/completed, data/inst (Count)
system.cpu.mmu.stage2_itb_walker.requestOrigin_Requested::total            0                       # Table walker requests started/completed, data/inst (Count)
system.cpu.mmu.stage2_itb_walker.requestOrigin_Completed::Data            0                       # Table walker requests started/completed, data/inst (Count)
system.cpu.mmu.stage2_itb_walker.requestOrigin_Completed::Inst            0                       # Table walker requests started/completed, data/inst (Count)
system.cpu.mmu.stage2_itb_walker.requestOrigin_Completed::total            0                       # Table walker requests started/completed, data/inst (Count)
system.cpu.mmu.stage2_itb_walker.requestOrigin::total            0                       # Table walker requests started/completed, data/inst (Count)
system.cpu.mmu.stage2_itb_walker.power_state.pwrStateResidencyTicks::UNDEFINED  31451981000                       # Cumulative time (in ticks) in various power states (Tick)
system.cpu.power_state.pwrStateResidencyTicks::ON  31451981000                       # Cumulative time (in ticks) in various power states (Tick)
system.cpu.thread_0.numInsts                 46390398                       # Number of Instructions committed (Count)
system.cpu.thread_0.numOps                   50730771                       # Number of Ops committed (Count)
system.cpu.thread_0.numMemRefs                      0                       # Number of Memory References (Count)
system.cpu.workload.numSyscalls                  4122                       # Number of system calls (Count)
system.cpu_clk_domain.clock                       500                       # Clock period in ticks (Tick)
system.cpu_voltage_domain.voltage                   1                       # Voltage in Volts (Volt)
system.mem_ctrls.avgPriority_writebacks::samples     13246.00                       # Average QoS priority value for accepted requests (Count)
system.mem_ctrls.avgPriority_cpu.inst::samples      1123.00                       # Average QoS priority value for accepted requests (Count)
system.mem_ctrls.avgPriority_cpu.data::samples     27687.00                       # Average QoS priority value for accepted requests (Count)
system.mem_ctrls.priorityMinLatency      0.000000018750                       # per QoS priority minimum request to response latency (Second)
system.mem_ctrls.priorityMaxLatency      0.015690448500                       # per QoS priority maximum request to response latency (Second)
system.mem_ctrls.numReadWriteTurnArounds          695                       # Number of turnarounds from READ to WRITE (Count)
system.mem_ctrls.numWriteReadTurnArounds          695                       # Number of turnarounds from WRITE to READ (Count)
system.mem_ctrls.numStayReadState              155657                       # Number of times bus staying in READ state (Count)
system.mem_ctrls.numStayWriteState              12557                       # Number of times bus staying in WRITE state (Count)
system.mem_ctrls.readReqs                      107858                       # Number of read requests accepted (Count)
system.mem_ctrls.writeReqs                      91145                       # Number of write requests accepted (Count)
system.mem_ctrls.readBursts                    107858                       # Number of controller read bursts, including those serviced by the write queue (Count)
system.mem_ctrls.writeBursts                    91145                       # Number of controller write bursts, including those merged in the write queue (Count)
system.mem_ctrls.servicedByWrQ                  79048                       # Number of controller read bursts serviced by the write queue (Count)
system.mem_ctrls.mergedWrBursts                 77899                       # Number of controller write bursts merged with an existing one (Count)
system.mem_ctrls.neitherReadNorWriteReqs            0                       # Number of requests that are neither read nor write (Count)
system.mem_ctrls.avgRdQLen                       1.00                       # Average read queue length when enqueuing ((Count/Tick))
system.mem_ctrls.avgWrQLen                      25.96                       # Average write queue length when enqueuing ((Count/Tick))
system.mem_ctrls.numRdRetry                         0                       # Number of times read queue was full causing retry (Count)
system.mem_ctrls.numWrRetry                         1                       # Number of times write queue was full causing retry (Count)
system.mem_ctrls.readPktSize::0                     0                       # Read request sizes (log2) (Count)
system.mem_ctrls.readPktSize::1                     0                       # Read request sizes (log2) (Count)
system.mem_ctrls.readPktSize::2                     0                       # Read request sizes (log2) (Count)
system.mem_ctrls.readPktSize::3                     0                       # Read request sizes (log2) (Count)
system.mem_ctrls.readPktSize::4                     0                       # Read request sizes (log2) (Count)
system.mem_ctrls.readPktSize::5                     0                       # Read request sizes (log2) (Count)
system.mem_ctrls.readPktSize::6                107858                       # Read request sizes (log2) (Count)
system.mem_ctrls.writePktSize::0                    0                       # Write request sizes (log2) (Count)
system.mem_ctrls.writePktSize::1                    0                       # Write request sizes (log2) (Count)
system.mem_ctrls.writePktSize::2                    0                       # Write request sizes (log2) (Count)
system.mem_ctrls.writePktSize::3                    0                       # Write request sizes (log2) (Count)
system.mem_ctrls.writePktSize::4                    0                       # Write request sizes (log2) (Count)
system.mem_ctrls.writePktSize::5                    0                       # Write request sizes (log2) (Count)
system.mem_ctrls.writePktSize::6                91145                       # Write request sizes (log2) (Count)
system.mem_ctrls.rdQLenPdf::0                   28549                       # What read queue length does an incoming req see (Count)
system.mem_ctrls.rdQLenPdf::1                     252                       # What read queue length does an incoming req see (Count)
system.mem_ctrls.rdQLenPdf::2                       9                       # What read queue length does an incoming req see (Count)
system.mem_ctrls.rdQLenPdf::3                       0                       # What read queue length does an incoming req see (Count)
system.mem_ctrls.rdQLenPdf::4                       0                       # What read queue length does an incoming req see (Count)
system.mem_ctrls.rdQLenPdf::5                       0                       # What read queue length does an incoming req see (Count)
system.mem_ctrls.rdQLenPdf::6                       0                       # What read queue length does an incoming req see (Count)
system.mem_ctrls.rdQLenPdf::7                       0                       # What read queue length does an incoming req see (Count)
system.mem_ctrls.rdQLenPdf::8                       0                       # What read queue length does an incoming req see (Count)
system.mem_ctrls.rdQLenPdf::9                       0                       # What read queue length does an incoming req see (Count)
system.mem_ctrls.rdQLenPdf::10                      0                       # What read queue length does an incoming req see (Count)
system.mem_ctrls.rdQLenPdf::11                      0                       # What read queue length does an incoming req see (Count)
system.mem_ctrls.rdQLenPdf::12                      0                       # What read queue length does an incoming req see (Count)
system.mem_ctrls.rdQLenPdf::13                      0                       # What read queue length does an incoming req see (Count)
system.mem_ctrls.rdQLenPdf::14                      0                       # What read queue length does an incoming req see (Count)
system.mem_ctrls.rdQLenPdf::15                      0                       # What read queue length does an incoming req see (Count)
system.mem_ctrls.rdQLenPdf::16                      0                       # What read queue length does an incoming req see (Count)
system.mem_ctrls.rdQLenPdf::17                      0                       # What read queue length does an incoming req see (Count)
system.mem_ctrls.rdQLenPdf::18                      0                       # What read queue length does an incoming req see (Count)
system.mem_ctrls.rdQLenPdf::19                      0                       # What read queue length does an incoming req see (Count)
system.mem_ctrls.rdQLenPdf::20                      0                       # What read queue length does an incoming req see (Count)
system.mem_ctrls.rdQLenPdf::21                      0                       # What read queue length does an incoming req see (Count)
system.mem_ctrls.rdQLenPdf::22                      0                       # What read queue length does an incoming req see (Count)
system.mem_ctrls.rdQLenPdf::23                      0                       # What read queue length does an incoming req see (Count)
system.mem_ctrls.rdQLenPdf::24                      0                       # What read queue length does an incoming req see (Count)
system.mem_ctrls.rdQLenPdf::25                      0                       # What read queue length does an incoming req see (Count)
system.mem_ctrls.rdQLenPdf::26                      0                       # What read queue length does an incoming req see (Count)
system.mem_ctrls.rdQLenPdf::27                      0                       # What read queue length does an incoming req see (Count)
system.mem_ctrls.rdQLenPdf::28                      0                       # What read queue length does an incoming req see (Count)
system.mem_ctrls.rdQLenPdf::29                      0                       # What read queue length does an incoming req see (Count)
system.mem_ctrls.rdQLenPdf::30                      0                       # What read queue length does an incoming req see (Count)
system.mem_ctrls.rdQLenPdf::31                      0                       # What read queue length does an incoming req see (Count)
system.mem_ctrls.wrQLenPdf::0                       1                       # What write queue length does an incoming req see (Count)
system.mem_ctrls.wrQLenPdf::1                       1                       # What write queue length does an incoming req see (Count)
system.mem_ctrls.wrQLenPdf::2                       1                       # What write queue length does an incoming req see (Count)
system.mem_ctrls.wrQLenPdf::3                       1                       # What write queue length does an incoming req see (Count)
system.mem_ctrls.wrQLenPdf::4                       1                       # What write queue length does an incoming req see (Count)
system.mem_ctrls.wrQLenPdf::5                       1                       # What write queue length does an incoming req see (Count)
system.mem_ctrls.wrQLenPdf::6                       1                       # What write queue length does an incoming req see (Count)
system.mem_ctrls.wrQLenPdf::7                       1                       # What write queue length does an incoming req see (Count)
system.mem_ctrls.wrQLenPdf::8                       1                       # What write queue length does an incoming req see (Count)
system.mem_ctrls.wrQLenPdf::9                       1                       # What write queue length does an incoming req see (Count)
system.mem_ctrls.wrQLenPdf::10                      1                       # What write queue length does an incoming req see (Count)
system.mem_ctrls.wrQLenPdf::11                      1                       # What write queue length does an incoming req see (Count)
system.mem_ctrls.wrQLenPdf::12                      1                       # What write queue length does an incoming req see (Count)
system.mem_ctrls.wrQLenPdf::13                      1                       # What write queue length does an incoming req see (Count)
system.mem_ctrls.wrQLenPdf::14                      1                       # What write queue length does an incoming req see (Count)
system.mem_ctrls.wrQLenPdf::15                    563                       # What write queue length does an incoming req see (Count)
system.mem_ctrls.wrQLenPdf::16                    585                       # What write queue length does an incoming req see (Count)
system.mem_ctrls.wrQLenPdf::17                    706                       # What write queue length does an incoming req see (Count)
system.mem_ctrls.wrQLenPdf::18                    708                       # What write queue length does an incoming req see (Count)
system.mem_ctrls.wrQLenPdf::19                    711                       # What write queue length does an incoming req see (Count)
system.mem_ctrls.wrQLenPdf::20                    727                       # What write queue length does an incoming req see (Count)
system.mem_ctrls.wrQLenPdf::21                    730                       # What write queue length does an incoming req see (Count)
system.mem_ctrls.wrQLenPdf::22                    725                       # What write queue length does an incoming req see (Count)
system.mem_ctrls.wrQLenPdf::23                    740                       # What write queue length does an incoming req see (Count)
system.mem_ctrls.wrQLenPdf::24                    741                       # What write queue length does an incoming req see (Count)
system.mem_ctrls.wrQLenPdf::25                    736                       # What write queue length does an incoming req see (Count)
system.mem_ctrls.wrQLenPdf::26                    741                       # What write queue length does an incoming req see (Count)
system.mem_ctrls.wrQLenPdf::27                    749                       # What write queue length does an incoming req see (Count)
system.mem_ctrls.wrQLenPdf::28                    742                       # What write queue length does an incoming req see (Count)
system.mem_ctrls.wrQLenPdf::29                    736                       # What write queue length does an incoming req see (Count)
system.mem_ctrls.wrQLenPdf::30                    753                       # What write queue length does an incoming req see (Count)
system.mem_ctrls.wrQLenPdf::31                    743                       # What write queue length does an incoming req see (Count)
system.mem_ctrls.wrQLenPdf::32                    745                       # What write queue length does an incoming req see (Count)
system.mem_ctrls.wrQLenPdf::33                     54                       # What write queue length does an incoming req see (Count)
system.mem_ctrls.wrQLenPdf::34                     53                       # What write queue length does an incoming req see (Count)
system.mem_ctrls.wrQLenPdf::35                     35                       # What write queue length does an incoming req see (Count)
system.mem_ctrls.wrQLenPdf::36                     30                       # What write queue length does an incoming req see (Count)
system.mem_ctrls.wrQLenPdf::37                     36                       # What write queue length does an incoming req see (Count)
system.mem_ctrls.wrQLenPdf::38                     18                       # What write queue length does an incoming req see (Count)
system.mem_ctrls.wrQLenPdf::39                     14                       # What write queue length does an incoming req see (Count)
system.mem_ctrls.wrQLenPdf::40                     11                       # What write queue length does an incoming req see (Count)
system.mem_ctrls.wrQLenPdf::41                     11                       # What write queue length does an incoming req see (Count)
system.mem_ctrls.wrQLenPdf::42                      1                       # What write queue length does an incoming req see (Count)
system.mem_ctrls.wrQLenPdf::43                      1                       # What write queue length does an incoming req see (Count)
system.mem_ctrls.wrQLenPdf::44                      1                       # What write queue length does an incoming req see (Count)
system.mem_ctrls.wrQLenPdf::45                      1                       # What write queue length does an incoming req see (Count)
system.mem_ctrls.wrQLenPdf::46                      1                       # What write queue length does an incoming req see (Count)
system.mem_ctrls.wrQLenPdf::47                      1                       # What write queue length does an incoming req see (Count)
system.mem_ctrls.wrQLenPdf::48                      3                       # What write queue length does an incoming req see (Count)
system.mem_ctrls.wrQLenPdf::49                      8                       # What write queue length does an incoming req see (Count)
system.mem_ctrls.wrQLenPdf::50                      7                       # What write queue length does an incoming req see (Count)
system.mem_ctrls.wrQLenPdf::51                      8                       # What write queue length does an incoming req see (Count)
system.mem_ctrls.wrQLenPdf::52                      5                       # What write queue length does an incoming req see (Count)
system.mem_ctrls.wrQLenPdf::53                      7                       # What write queue length does an incoming req see (Count)
system.mem_ctrls.wrQLenPdf::54                      5                       # What write queue length does an incoming req see (Count)
system.mem_ctrls.wrQLenPdf::55                      7                       # What write queue length does an incoming req see (Count)
system.mem_ctrls.wrQLenPdf::56                      5                       # What write queue length does an incoming req see (Count)
system.mem_ctrls.wrQLenPdf::57                      7                       # What write queue length does an incoming req see (Count)
system.mem_ctrls.wrQLenPdf::58                      5                       # What write queue length does an incoming req see (Count)
system.mem_ctrls.wrQLenPdf::59                      7                       # What write queue length does an incoming req see (Count)
system.mem_ctrls.wrQLenPdf::60                      5                       # What write queue length does an incoming req see (Count)
system.mem_ctrls.wrQLenPdf::61                      1                       # What write queue length does an incoming req see (Count)
system.mem_ctrls.wrQLenPdf::62                      1                       # What write queue length does an incoming req see (Count)
system.mem_ctrls.wrQLenPdf::63                      1                       # What write queue length does an incoming req see (Count)
system.mem_ctrls.rdPerTurnAround::samples          695                       # Reads before turning the bus around for writes (Count)
system.mem_ctrls.rdPerTurnAround::mean      41.428777                       # Reads before turning the bus around for writes (Count)
system.mem_ctrls.rdPerTurnAround::stdev    197.830926                       # Reads before turning the bus around for writes (Count)
system.mem_ctrls.rdPerTurnAround::0-127           683     98.27%     98.27% # Reads before turning the bus around for writes (Count)
system.mem_ctrls.rdPerTurnAround::128-255            5      0.72%     98.99% # Reads before turning the bus around for writes (Count)
system.mem_ctrls.rdPerTurnAround::384-511            2      0.29%     99.28% # Reads before turning the bus around for writes (Count)
system.mem_ctrls.rdPerTurnAround::512-639            1      0.14%     99.42% # Reads before turning the bus around for writes (Count)
system.mem_ctrls.rdPerTurnAround::768-895            1      0.14%     99.57% # Reads before turning the bus around for writes (Count)
system.mem_ctrls.rdPerTurnAround::1280-1407            1      0.14%     99.71% # Reads before turning the bus around for writes (Count)
system.mem_ctrls.rdPerTurnAround::3072-3199            1      0.14%     99.86% # Reads before turning the bus around for writes (Count)
system.mem_ctrls.rdPerTurnAround::3840-3967            1      0.14%    100.00% # Reads before turning the bus around for writes (Count)
system.mem_ctrls.rdPerTurnAround::total           695                       # Reads before turning the bus around for writes (Count)
system.mem_ctrls.wrPerTurnAround::samples          695                       # Writes before turning the bus around for reads (Count)
system.mem_ctrls.wrPerTurnAround::mean      19.012950                       # Writes before turning the bus around for reads (Count)
system.mem_ctrls.wrPerTurnAround::gmean     17.883903                       # Writes before turning the bus around for reads (Count)
system.mem_ctrls.wrPerTurnAround::stdev     24.238753                       # Writes before turning the bus around for reads (Count)
system.mem_ctrls.wrPerTurnAround::16-31           690     99.28%     99.28% # Writes before turning the bus around for reads (Count)
system.mem_ctrls.wrPerTurnAround::32-47             1      0.14%     99.42% # Writes before turning the bus around for reads (Count)
system.mem_ctrls.wrPerTurnAround::48-63             1      0.14%     99.57% # Writes before turning the bus around for reads (Count)
system.mem_ctrls.wrPerTurnAround::128-143            1      0.14%     99.71% # Writes before turning the bus around for reads (Count)
system.mem_ctrls.wrPerTurnAround::176-191            1      0.14%     99.86% # Writes before turning the bus around for reads (Count)
system.mem_ctrls.wrPerTurnAround::608-623            1      0.14%    100.00% # Writes before turning the bus around for reads (Count)
system.mem_ctrls.wrPerTurnAround::total           695                       # Writes before turning the bus around for reads (Count)
system.mem_ctrls.bytesReadWrQ                 5059072                       # Total number of bytes read from write queue (Byte)
[...]
system.mem_ctrls.dram.bwInstRead::cpu.inst    160582063                       # Instruction read bandwidth from this memory ((Byte/Second))
system.mem_ctrls.dram.bwInstRead::total     160582063                       # Instruction read bandwidth from this memory ((Byte/Second))
system.mem_ctrls.dram.bwWrite::writebacks     25881231                       # Write bandwidth from this memory ((Byte/Second))
system.mem_ctrls.dram.bwWrite::total         25881231                       # Write bandwidth from this memory ((Byte/Second))
system.mem_ctrls.dram.bwTotal::writebacks     25881231                       # Total bandwidth to/from this memory ((Byte/Second))
system.mem_ctrls.dram.bwTotal::cpu.inst     160582063                       # Total bandwidth to/from this memory ((Byte/Second))
system.mem_ctrls.dram.bwTotal::cpu.data      58890535                       # Total bandwidth to/from this memory ((Byte/Second))
system.mem_ctrls.dram.bwTotal::total        245353830                       # Total bandwidth to/from this memory ((Byte/Second))
system.mem_ctrls.dram.readBursts                28810                       # Number of DRAM read bursts (Count)
system.mem_ctrls.dram.writeBursts               13214                       # Number of DRAM write bursts (Count)
system.mem_ctrls.dram.perBankRdBursts::0         1283                       # Per bank write bursts (Count)
system.mem_ctrls.dram.perBankRdBursts::1          906                       # Per bank write bursts (Count)
system.mem_ctrls.dram.perBankRdBursts::2          710                       # Per bank write bursts (Count)
system.mem_ctrls.dram.perBankRdBursts::3         4506                       # Per bank write bursts (Count)
system.mem_ctrls.dram.perBankRdBursts::4         1382                       # Per bank write bursts (Count)
system.mem_ctrls.dram.perBankRdBursts::5         1405                       # Per bank write bursts (Count)
system.mem_ctrls.dram.perBankRdBursts::6         1865                       # Per bank write bursts (Count)
system.mem_ctrls.dram.perBankRdBursts::7         1294                       # Per bank write bursts (Count)
system.mem_ctrls.dram.perBankRdBursts::8         1675                       # Per bank write bursts (Count)
system.mem_ctrls.dram.perBankRdBursts::9          987                       # Per bank write bursts (Count)
system.mem_ctrls.dram.perBankRdBursts::10          829                       # Per bank write bursts (Count)
system.mem_ctrls.dram.perBankRdBursts::11          910                       # Per bank write bursts (Count)
system.mem_ctrls.dram.perBankRdBursts::12         1280                       # Per bank write bursts (Count)
system.mem_ctrls.dram.perBankRdBursts::13         5974                       # Per bank write bursts (Count)
system.mem_ctrls.dram.perBankRdBursts::14         1926                       # Per bank write bursts (Count)
system.mem_ctrls.dram.perBankRdBursts::15         1878                       # Per bank write bursts (Count)
system.mem_ctrls.dram.perBankWrBursts::0         1110                       # Per bank write bursts (Count)
system.mem_ctrls.dram.perBankWrBursts::1          522                       # Per bank write bursts (Count)
system.mem_ctrls.dram.perBankWrBursts::2          474                       # Per bank write bursts (Count)
system.mem_ctrls.dram.perBankWrBursts::3          233                       # Per bank write bursts (Count)
system.mem_ctrls.dram.perBankWrBursts::4          572                       # Per bank write bursts (Count)
system.mem_ctrls.dram.perBankWrBursts::5          599                       # Per bank write bursts (Count)
system.mem_ctrls.dram.perBankWrBursts::6          554                       # Per bank write bursts (Count)
system.mem_ctrls.dram.perBankWrBursts::7          525                       # Per bank write bursts (Count)
system.mem_ctrls.dram.perBankWrBursts::8          550                       # Per bank write bursts (Count)
system.mem_ctrls.dram.perBankWrBursts::9          551                       # Per bank write bursts (Count)
system.mem_ctrls.dram.perBankWrBursts::10          516                       # Per bank write bursts (Count)
system.mem_ctrls.dram.perBankWrBursts::11          597                       # Per bank write bursts (Count)
system.mem_ctrls.dram.perBankWrBursts::12          946                       # Per bank write bursts (Count)
system.mem_ctrls.dram.perBankWrBursts::13         1819                       # Per bank write bursts (Count)
system.mem_ctrls.dram.perBankWrBursts::14         1749                       # Per bank write bursts (Count)
system.mem_ctrls.dram.perBankWrBursts::15         1897                       # Per bank write bursts (Count)
system.mem_ctrls.dram.totQLat               322770750                       # Total ticks spent queuing (Tick)
system.mem_ctrls.dram.totBusLat             144050000                       # Total ticks spent in databus transfers (Tick)
system.mem_ctrls.dram.totMemAccLat          862958250                       # Total ticks spent from burst creation until serviced by the DRAM (Tick)
system.mem_ctrls.dram.avgQLat                11203.43                       # Average queueing delay per DRAM burst ((Tick/Count))
system.mem_ctrls.dram.avgBusLat               5000.00                       # Average bus latency per DRAM burst ((Tick/Count))
system.mem_ctrls.dram.avgMemAccLat           29953.43                       # Average memory access latency per DRAM burst ((Tick/Count))
system.mem_ctrls.dram.readRowHits               19413                       # Number of row buffer hits during reads (Count)
system.mem_ctrls.dram.writeRowHits              11493                       # Number of row buffer hits during writes (Count)
system.mem_ctrls.dram.readRowHitRate            67.38                       # Row buffer hit rate for reads (Ratio)
system.mem_ctrls.dram.writeRowHitRate           86.98                       # Row buffer hit rate for writes (Ratio)
system.mem_ctrls.dram.bytesPerActivate::samples        11109                       # Bytes accessed per row activation (Byte)
system.mem_ctrls.dram.bytesPerActivate::mean   241.937168                       # Bytes accessed per row activation (Byte)
system.mem_ctrls.dram.bytesPerActivate::gmean   175.265313                       # Bytes accessed per row activation (Byte)
system.mem_ctrls.dram.bytesPerActivate::stdev   229.971445                       # Bytes accessed per row activation (Byte)
system.mem_ctrls.dram.bytesPerActivate::0-127         2280     20.52%     20.52% # Bytes accessed per row activation (Byte)
system.mem_ctrls.dram.bytesPerActivate::128-255         5689     51.21%     71.73% # Bytes accessed per row activation (Byte)
system.mem_ctrls.dram.bytesPerActivate::256-383         1054      9.49%     81.22% # Bytes accessed per row activation (Byte)
system.mem_ctrls.dram.bytesPerActivate::384-511          522      4.70%     85.92% # Bytes accessed per row activation (Byte)
system.mem_ctrls.dram.bytesPerActivate::512-639          598      5.38%     91.30% # Bytes accessed per row activation (Byte)
system.mem_ctrls.dram.bytesPerActivate::640-767          236      2.12%     93.43% # Bytes accessed per row activation (Byte)
system.mem_ctrls.dram.bytesPerActivate::768-895          239      2.15%     95.58% # Bytes accessed per row activation (Byte)
system.mem_ctrls.dram.bytesPerActivate::896-1023           92      0.83%     96.41% # Bytes accessed per row activation (Byte)
system.mem_ctrls.dram.bytesPerActivate::1024-1151          399      3.59%    100.00% # Bytes accessed per row activation (Byte)
system.mem_ctrls.dram.bytesPerActivate::total        11109                       # Bytes accessed per row activation (Byte)
system.mem_ctrls.dram.bytesRead               1843840                       # Total bytes read (Byte)
system.mem_ctrls.dram.bytesWritten             845696                       # Total bytes written (Byte)
system.mem_ctrls.dram.avgRdBW               58.623970                       # Average DRAM read bandwidth in MiBytes/s ((Byte/Second))
system.mem_ctrls.dram.avgWrBW               26.888481                       # Average DRAM write bandwidth in MiBytes/s ((Byte/Second))
system.mem_ctrls.dram.peakBW                 12800.00                       # Theoretical peak bandwidth in MiByte/s ((Byte/Second))
system.mem_ctrls.dram.busUtil                    0.67                       # Data bus utilization in percentage (Ratio)
system.mem_ctrls.dram.busUtilRead                0.46                       # Data bus utilization in percentage for reads (Ratio)
system.mem_ctrls.dram.busUtilWrite               0.21                       # Data bus utilization in percentage for writes (Ratio)
system.mem_ctrls.dram.pageHitRate               73.54                       # Row buffer hit rate, read and write combined (Ratio)
system.mem_ctrls.dram.power_state.pwrStateResidencyTicks::UNDEFINED  31451981000                       # Cumulative time (in ticks) in various power states (Tick)
system.mem_ctrls.dram.rank0.actEnergy        35928480                       # Energy for activate commands per rank (pJ) (Joule)
system.mem_ctrls.dram.rank0.preEnergy        19081260                       # Energy for precharge commands per rank (pJ) (Joule)
system.mem_ctrls.dram.rank0.readEnergy       95326140                       # Energy for read commands per rank (pJ) (Joule)
system.mem_ctrls.dram.rank0.writeEnergy      23954580                       # Energy for write commands per rank (pJ) (Joule)
system.mem_ctrls.dram.rank0.refreshEnergy 2482530960.000000                       # Energy for refresh commands per rank (pJ) (Joule)
system.mem_ctrls.dram.rank0.actBackEnergy  10266566400                       # Energy for active background per rank (pJ) (Joule)
system.mem_ctrls.dram.rank0.preBackEnergy   3432031200                       # Energy for precharge background per rank (pJ) (Joule)
system.mem_ctrls.dram.rank0.actPowerDownEnergy            0                       # Energy for active power-down per rank (pJ) (Joule)
system.mem_ctrls.dram.rank0.prePowerDownEnergy            0                       # Energy for precharge power-down per rank (pJ) (Joule)
system.mem_ctrls.dram.rank0.selfRefreshEnergy            0                       # Energy for self refresh per rank (pJ) (Joule)
system.mem_ctrls.dram.rank0.totalEnergy   16355419020                       # Total energy per rank (pJ) (Joule)
system.mem_ctrls.dram.rank0.averagePower   520.012365                       # Core power per rank (mW) (Watt)
system.mem_ctrls.dram.rank0.totalIdleTime            0                       # Total Idle time Per DRAM Rank (Tick)
system.mem_ctrls.dram.rank0.pwrStateTime::IDLE   8831178000                       # Time in different power states (Tick)
system.mem_ctrls.dram.rank0.pwrStateTime::REF   1050140000                       # Time in different power states (Tick)
system.mem_ctrls.dram.rank0.pwrStateTime::SREF            0                       # Time in different power states (Tick)
system.mem_ctrls.dram.rank0.pwrStateTime::PRE_PDN            0                       # Time in different power states (Tick)
system.mem_ctrls.dram.rank0.pwrStateTime::ACT  21570663000                       # Time in different power states (Tick)
system.mem_ctrls.dram.rank0.pwrStateTime::ACT_PDN            0                       # Time in different power states (Tick)
system.mem_ctrls.dram.rank1.actEnergy        43454040                       # Energy for activate commands per rank (pJ) (Joule)
system.mem_ctrls.dram.rank1.preEnergy        23077395                       # Energy for precharge commands per rank (pJ) (Joule)
system.mem_ctrls.dram.rank1.readEnergy      110377260                       # Energy for read commands per rank (pJ) (Joule)
system.mem_ctrls.dram.rank1.writeEnergy      45022500                       # Energy for write commands per rank (pJ) (Joule)
system.mem_ctrls.dram.rank1.refreshEnergy 2482530960.000000                       # Energy for refresh commands per rank (pJ) (Joule)
system.mem_ctrls.dram.rank1.actBackEnergy  10541762400                       # Energy for active background per rank (pJ) (Joule)
system.mem_ctrls.dram.rank1.preBackEnergy   3200287200                       # Energy for precharge background per rank (pJ) (Joule)
system.mem_ctrls.dram.rank1.actPowerDownEnergy            0                       # Energy for active power-down per rank (pJ) (Joule)
system.mem_ctrls.dram.rank1.prePowerDownEnergy            0                       # Energy for precharge power-down per rank (pJ) (Joule)
system.mem_ctrls.dram.rank1.selfRefreshEnergy            0                       # Energy for self refresh per rank (pJ) (Joule)
system.mem_ctrls.dram.rank1.totalEnergy   16446511755                       # Total energy per rank (pJ) (Joule)
system.mem_ctrls.dram.rank1.averagePower   522.908613                       # Core power per rank (mW) (Watt)
system.mem_ctrls.dram.rank1.totalIdleTime            0                       # Total Idle time Per DRAM Rank (Tick)
system.mem_ctrls.dram.rank1.pwrStateTime::IDLE   8223347000                       # Time in different power states (Tick)
system.mem_ctrls.dram.rank1.pwrStateTime::REF   1050140000                       # Time in different power states (Tick)
system.mem_ctrls.dram.rank1.pwrStateTime::SREF            0                       # Time in different power states (Tick)
system.mem_ctrls.dram.rank1.pwrStateTime::PRE_PDN            0                       # Time in different power states (Tick)
system.mem_ctrls.dram.rank1.pwrStateTime::ACT  22178494000                       # Time in different power states (Tick)
system.mem_ctrls.dram.rank1.pwrStateTime::ACT_PDN            0                       # Time in different power states (Tick)
system.mem_ctrls.power_state.pwrStateResidencyTicks::UNDEFINED  31451981000                       # Cumulative time (in ticks) in various power states (Tick)
system.membus.transDist::ReadResp              106066                       # Transaction distribution (Count)
system.membus.transDist::WritebackDirty         12719                       # Transaction distribution (Count)
system.membus.transDist::WritebackClean         78427                       # Transaction distribution (Count)
system.membus.transDist::CleanEvict             17250                       # Transaction distribution (Count)
system.membus.transDist::ReadExReq               1791                       # Transaction distribution (Count)
system.membus.transDist::ReadExResp              1791                       # Transaction distribution (Count)
system.membus.transDist::ReadCleanReq           78917                       # Transaction distribution (Count)
system.membus.transDist::ReadSharedReq          27150                       # Transaction distribution (Count)
system.membus.transDist::InvalidateReq           1540                       # Transaction distribution (Count)
system.membus.pktCount_system.cpu.icache.mem_side_port::system.mem_ctrls.port       236260                       # Packet count per connected requestor and responder (Count)
system.membus.pktCount_system.cpu.dcache.mem_side_port::system.mem_ctrls.port        89391                       # Packet count per connected requestor and responder (Count)
system.membus.pktCount::total                  325651                       # Packet count per connected requestor and responder (Count)
system.membus.pktSize_system.cpu.icache.mem_side_port::system.mem_ctrls.port     10069952                       # Cumulative packet size per connected requestor and responder (Byte)
system.membus.pktSize_system.cpu.dcache.mem_side_port::system.mem_ctrls.port      2666240                       # Cumulative packet size per connected requestor and responder (Byte)
system.membus.pktSize::total                 12736192                       # Cumulative packet size per connected requestor and responder (Byte)
system.membus.snoops                                0                       # Total snoops (Count)
system.membus.snoopTraffic                          0                       # Total snoop traffic (Byte)
system.membus.snoopFanout::samples             109398                       # Request fanout histogram (Count)
system.membus.snoopFanout::mean              0.000027                       # Request fanout histogram (Count)
system.membus.snoopFanout::stdev             0.005237                       # Request fanout histogram (Count)
system.membus.snoopFanout::underflows               0      0.00%      0.00% # Request fanout histogram (Count)
system.membus.snoopFanout::0                   109395    100.00%    100.00% # Request fanout histogram (Count)
system.membus.snoopFanout::1                        3      0.00%    100.00% # Request fanout histogram (Count)
system.membus.snoopFanout::2                        0      0.00%    100.00% # Request fanout histogram (Count)
system.membus.snoopFanout::overflows                0      0.00%    100.00% # Request fanout histogram (Count)
system.membus.snoopFanout::min_value                0                       # Request fanout histogram (Count)
system.membus.snoopFanout::max_value                1                       # Request fanout histogram (Count)
system.membus.snoopFanout::total               109398                       # Request fanout histogram (Count)
system.membus.power_state.pwrStateResidencyTicks::UNDEFINED  31451981000                       # Cumulative time (in ticks) in various power states (Tick)
system.membus.reqLayer0.occupancy           606190250                       # Layer occupancy (ticks) (Tick)
system.membus.reqLayer0.utilization               0.0                       # Layer utilization (Ratio)
system.membus.respLayer1.occupancy          394947750                       # Layer occupancy (ticks) (Tick)
system.membus.respLayer1.utilization              0.0                       # Layer utilization (Ratio)
system.membus.respLayer2.occupancy          153973500                       # Layer occupancy (ticks) (Tick)
system.membus.respLayer2.utilization              0.0                       # Layer utilization (Ratio)
system.membus.snoop_filter.totRequests         217795                       # Total number of requests made to the snoop filter. (Count)
system.membus.snoop_filter.hitSingleRequests       108398                       # Number of requests hitting in the snoop filter with a single holder of the requested data. (Count)
system.membus.snoop_filter.hitMultiRequests            2                       # Number of requests hitting in the snoop filter with multiple (>1) holders of the requested data. (Count)
system.membus.snoop_filter.totSnoops                0                       # Total number of snoops made to the snoop filter. (Count)
system.membus.snoop_filter.hitSingleSnoops            0                       # Number of snoops hitting in the snoop filter with a single holder of the requested data. (Count)
system.membus.snoop_filter.hitMultiSnoops            0                       # Number of snoops hitting in the snoop filter with multiple (>1) holders of the requested data. (Count)
system.voltage_domain.voltage                       1                       # Voltage in Volts (Volt)
system.workload.inst.arm                            0                       # number of arm instructions executed (Count)
system.workload.inst.quiesce                        0                       # number of quiesce instructions executed (Count)
system.cpu.idleCycles                         5928524                       # Total number of cycles that the object has spent stopped (Unspecified)
system.cpu.tickCycles                        56975438                       # Number of cycles that the object actually ticked (Unspecified)

---------- End Simulation Statistics   ----------
