
---------- Begin Simulation Statistics ----------
simSeconds                                   0.030190                       # Number of seconds simulated (Second)
simTicks                                  30190053000                       # Number of ticks simulated (Tick)
finalTick                                 30190053000                       # Number of ticks from beginning of simulation (restored from checkpoints and never reset) (Tick)
simFreq                                  1000000000000                       # The number of ticks per simulated second ((Tick/Second))
hostSeconds                                     61.95                       # Real time elapsed on the host (Second)
hostTickRate                                487331940                       # The number of ticks simulated per host second (ticks/s) ((Tick/Second))
hostMemory                                     671432                       # Number of bytes of host memory used (Byte)
simInsts                                     46390398                       # Number of instructions simulated (Count)
simOps                                       50730771                       # Number of ops (including micro ops) simulated (Count)
hostInstRate                                   748840                       # Simulator instruction rate (inst/s) ((Count/Second))
hostOpRate                                     818902                       # Simulator op (including micro ops) rate (op/s) ((Count/Second))
system.clk_domain.clock                          1000                       # Clock period in ticks (Tick)
system.cpu.numCycles                         60380106                       # Number of cpu cycles simulated (Cycle)
system.cpu.numWorkItemsStarted                      0                       # Number of work items this cpu started (Count)
system.cpu.numWorkItemsCompleted                    0                       # Number of work items this cpu completed (Count)
system.cpu.numInsts                          46390398                       # Number of instructions committed (Count)
system.cpu.numOps                            50730771                       # Number of ops (including micro ops) committed (Count)
system.cpu.numDiscardedOps                     249599                       # Number of ops (including micro ops) which were discarded before commit (Count)
system.cpu.numFetchSuspends                         0                       # Number of times Execute suspended instruction fetching (Count)
system.cpu.cpi                               1.301565                       # CPI: cycles per instruction ((Cycle/Count))
system.cpu.ipc                               0.768306                       # IPC: instructions per cycle ((Count/Cycle))
system.cpu.committedInstType_0::No_OpClass        27678      0.05%      0.05% # Class of committed instruction (Count)
system.cpu.committedInstType_0::IntAlu       32632064     64.32%     64.38% # Class of committed instruction (Count)
system.cpu.committedInstType_0::IntMult        641224      1.26%     65.64% # Class of committed instruction (Count)
system.cpu.committedInstType_0::IntDiv         153813      0.30%     65.95% # Class of committed instruction (Count)
system.cpu.committedInstType_0::FloatAdd       278528      0.55%     66.49% # Class of committed instruction (Count)
system.cpu.committedInstType_0::FloatCmp        16384      0.03%     66.53% # Class of committed instruction (Count)
system.cpu.committedInstType_0::FloatCvt            0      0.00%     66.53% # Class of committed instruction (Count)
system.cpu.committedInstType_0::FloatMult       262144      0.52%     67.04% # Class of committed instruction (Count)
system.cpu.committedInstType_0::FloatMultAcc            0      0.00%     67.04% # Class of committed instruction (Count)
system.cpu.committedInstType_0::FloatDiv            0      0.00%     67.04% # Class of committed instruction (Count)
system.cpu.committedInstType_0::FloatMisc        49152      0.10%     67.14% # Class of committed instruction (Count)
system.cpu.committedInstType_0::FloatSqrt            0      0.00%     67.14% # Class of committed instruction (Count)
system.cpu.committedInstType_0::SimdAdd         62740      0.12%     67.26% # Class of committed instruction (Count)
system.cpu.committedInstType_0::SimdAddAcc            0      0.00%     67.26% # Class of committed instruction (Count)
system.cpu.committedInstType_0::SimdAlu        118039      0.23%     67.50% # Class of committed instruction (Count)
system.cpu.committedInstType_0::SimdCmp        110616      0.22%     67.72% # Class of committed instruction (Count)
system.cpu.committedInstType_0::SimdCvt             0      0.00%     67.72% # Class of committed instruction (Count)
system.cpu.committedInstType_0::SimdMisc        76054      0.15%     67.86% # Class of committed instruction (Count)
system.cpu.committedInstType_0::SimdMult            0      0.00%     67.86% # Class of committed instruction (Count)
system.cpu.committedInstType_0::SimdMultAcc            0      0.00%     67.86% # Class of committed instruction (Count)
system.cpu.committedInstType_0::SimdShift            0      0.00%     67.86% # Class of committed instruction (Count)
system.cpu.committedInstType_0::SimdShiftAcc            0      0.00%     67.86% # Class of committed instruction (Count)
system.cpu.committedInstType_0::SimdDiv             0      0.00%     67.86% # Class of committed instruction (Count)
system.cpu.committedInstType_0::SimdSqrt            0      0.00%     67.86% # Class of committed instruction (Count)
system.cpu.committedInstType_0::SimdFloatAdd            0      0.00%     67.86% # Class of committed instruction (Count)
system.cpu.committedInstType_0::SimdFloatAlu            0      0.00%     67.86% # Class of committed instruction (Count)
system.cpu.committedInstType_0::SimdFloatCmp            0      0.00%     67.86% # Class of committed instruction (Count)
system.cpu.committedInstType_0::SimdFloatCvt            0      0.00%     67.86% # Class of committed instruction (Count)
system.cpu.committedInstType_0::SimdFloatDiv            0      0.00%     67.86% # Class of committed instruction (Count)
system.cpu.committedInstType_0::SimdFloatMisc            0      0.00%     67.86% # Class of committed instruction (Count)
system.cpu.committedInstType_0::SimdFloatMult            0      0.00%     67.86% # Class of committed instruction (Count)
system.cpu.committedInstType_0::SimdFloatMultAcc            0      0.00%     67.86% # Class of committed instruction (Count)
system.cpu.committedInstType_0::SimdFloatSqrt            0      0.00%     67.86% # Class of committed instruction (Count)
system.cpu.committedInstType_0::SimdReduceAdd            0      0.00%     67.86% # Class of committed instruction (Count)
system.cpu.committedInstType_0::SimdReduceAlu            0      0.00%     67.86% # Class of committed instruction (Count)
system.cpu.committedInstType_0::SimdReduceCmp            0      0.00%     67.86% # Class of committed instruction (Count)
system.cpu.committedInstType_0::SimdFloatReduceAdd            0      0.00%     67.86% # Class of committed instruction (Count)
system.cpu.committedInstType_0::SimdFloatReduceCmp            0      0.00%     67.86% # Class of committed instruction (Count)
system.cpu.committedInstType_0::SimdAes             0      0.00%     67.86% # Class of committed instruction (Count)
system.cpu.committedInstType_0::SimdAesMix            0      0.00%     67.86% # Class of committed instruction (Count)
system.cpu.committedInstType_0::SimdSha1Hash            0      0.00%     67.86% # Class of committed instruction (Count)
system.cpu.committedInstType_0::SimdSha1Hash2            0      0.00%     67.86% # Class of committed instruction (Count)
system.cpu.committedInstType_0::SimdSha256Hash            0      0.00%     67.86% # Class of committed instruction (Count)
system.cpu.committedInstType_0::SimdSha256Hash2            0      0.00%     67.86% # Class of committed instruction (Count)
system.cpu.committedInstType_0::SimdShaSigma2            0      0.00%     67.86% # Class of committed instruction (Count)
system.cpu.committedInstType_0::SimdShaSigma3            0      0.00%     67.86% # Class of committed instruction (Count)
system.cpu.committedInstType_0::SimdPredAlu            0      0.00%     67.86% # Class of committed instruction (Count)
system.cpu.committedInstType_0::MemRead      11006940     21.70%     89.56% # Class of committed instruction (Count)
system.cpu.committedInstType_0::MemWrite      5295395     10.44%    100.00% # Class of committed instruction (Count)
system.cpu.committedInstType_0::FloatMemRead            0      0.00%    100.00% # Class of committed instruction (Count)
system.cpu.committedInstType_0::FloatMemWrite            0      0.00%    100.00% # Class of committed instruction (Count)
system.cpu.committedInstType_0::IprAccess            0      0.00%    100.00% # Class of committed instruction (Count)
system.cpu.committedInstType_0::InstPrefetch            0      0.00%    100.00% # Class of committed instruction (Count)
system.cpu.committedInstType_0::total        50730771                       # Class of committed instruction (Count)
system.cpu.branchPred.lookups                 6926735                       # Number of BP lookups (Count)
system.cpu.branchPred.condPredicted           5243283                       # Number of conditional branches predicted (Count)
system.cpu.branchPred.condIncorrect            104410                       # Number of conditional branches incorrect (Count)
system.cpu.branchPred.BTBLookups              3869536                       # Number of BTB lookups (Count)
system.cpu.branchPred.BTBHits                 3828515                       # Number of BTB hits (Count)
system.cpu.branchPred.BTBHitRatio            0.989399                       # BTB Hit Ratio (Ratio)
system.cpu.branchPred.RASUsed                  538121                       # Number of times the RAS was used to get a target. (Count)
system.cpu.branchPred.RASIncorrect                  5                       # Number of incorrect RAS predictions. (Count)
system.cpu.branchPred.indirectLookups           79330                       # Number of indirect predictor lookups. (Count)
system.cpu.branchPred.indirectHits              79056                       # Number of indirect target hits. (Count)
system.cpu.branchPred.indirectMisses              274                       # Number of indirect misses. (Count)
system.cpu.branchPred.indirectMispredicted         4207                       # Number of mispredicted indirect branches. (Count)
system.cpu.dcache.demandHits::cpu.data       16068327                       # number of demand (read+write) hits (Count)
system.cpu.dcache.demandHits::total          16068327                       # number of demand (read+write) hits (Count)
system.cpu.dcache.overallHits::cpu.data      16098106                       # number of overall hits (Count)
system.cpu.dcache.overallHits::total         16098106                       # number of overall hits (Count)
system.cpu.dcache.demandMisses::cpu.data        11995                       # number of demand (read+write) misses (Count)
system.cpu.dcache.demandMisses::total           11995                       # number of demand (read+write) misses (Count)
system.cpu.dcache.overallMisses::cpu.data        12000                       # number of overall misses (Count)
system.cpu.dcache.overallMisses::total          12000                       # number of overall misses (Count)
system.cpu.dcache.demandMissLatency::cpu.data    674426500                       # number of demand (read+write) miss ticks (Tick)
system.cpu.dcache.demandMissLatency::total    674426500                       # number of demand (read+write) miss ticks (Tick)
system.cpu.dcache.overallMissLatency::cpu.data    674426500                       # number of overall miss ticks (Tick)
system.cpu.dcache.overallMissLatency::total    674426500                       # number of overall miss ticks (Tick)
system.cpu.dcache.demandAccesses::cpu.data     16080322                       # number of demand (read+write) accesses (Count)
system.cpu.dcache.demandAccesses::total      16080322                       # number of demand (read+write) accesses (Count)
system.cpu.dcache.overallAccesses::cpu.data     16110106                       # number of overall (read+write) accesses (Count)
system.cpu.dcache.overallAccesses::total     16110106                       # number of overall (read+write) accesses (Count)
system.cpu.dcache.demandMissRate::cpu.data     0.000746                       # miss rate for demand accesses (Ratio)
system.cpu.dcache.demandMissRate::total      0.000746                       # miss rate for demand accesses (Ratio)
system.cpu.dcache.overallMissRate::cpu.data     0.000745                       # miss rate for overall accesses (Ratio)
system.cpu.dcache.overallMissRate::total     0.000745                       # miss rate for overall accesses (Ratio)
system.cpu.dcache.demandAvgMissLatency::cpu.data 56225.635682                       # average overall miss latency ((Cycle/Count))
system.cpu.dcache.demandAvgMissLatency::total 56225.635682                       # average overall miss latency ((Cycle/Count))
system.cpu.dcache.overallAvgMissLatency::cpu.data 56202.208333                       # average overall miss latency ((Cycle/Count))
system.cpu.dcache.overallAvgMissLatency::total 56202.208333                       # average overall miss latency ((Cycle/Count))
system.cpu.dcache.blockedCycles::no_mshrs            0                       # number of cycles access was blocked (Cycle)
system.cpu.dcache.blockedCycles::no_targets            0                       # number of cycles access was blocked (Cycle)
system.cpu.dcache.blockedCauses::no_mshrs            0                       # number of times access was blocked (Count)
system.cpu.dcache.blockedCauses::no_targets            0                       # number of times access was blocked (Count)
system.cpu.dcache.avgBlocked::no_mshrs            nan                       # average number of cycles each access was blocked ((Cycle/Count))
system.cpu.dcache.avgBlocked::no_targets          nan                       # average number of cycles each access was blocked ((Cycle/Count))
system.cpu.dcache.writebacks::writebacks         5559                       # number of writebacks (Count)
system.cpu.dcache.writebacks::total              5559                       # number of writebacks (Count)
system.cpu.dcache.demandMshrHits::cpu.data         3687                       # number of demand (read+write) MSHR hits (Count)
system.cpu.dcache.demandMshrHits::total          3687                       # number of demand (read+write) MSHR hits (Count)
system.cpu.dcache.overallMshrHits::cpu.data         3687                       # number of overall MSHR hits (Count)
system.cpu.dcache.overallMshrHits::total         3687                       # number of overall MSHR hits (Count)
system.cpu.dcache.demandMshrMisses::cpu.data         8308                       # number of demand (read+write) MSHR misses (Count)
system.cpu.dcache.demandMshrMisses::total         8308                       # number of demand (read+write) MSHR misses (Count)
system.cpu.dcache.overallMshrMisses::cpu.data         8313                       # number of overall MSHR misses (Count)
system.cpu.dcache.overallMshrMisses::total         8313                       # number of overall MSHR misses (Count)
system.cpu.dcache.demandMshrMissLatency::cpu.data    430468500                       # number of demand (read+write) MSHR miss ticks (Tick)
system.cpu.dcache.demandMshrMissLatency::total    430468500                       # number of demand (read+write) MSHR miss ticks (Tick)
system.cpu.dcache.overallMshrMissLatency::cpu.data    430832500                       # number of overall MSHR miss ticks (Tick)
system.cpu.dcache.overallMshrMissLatency::total    430832500                       # number of overall MSHR miss ticks (Tick)
system.cpu.dcache.demandMshrMissRate::cpu.data     0.000517                       # mshr miss ratio for demand accesses (Ratio)
system.cpu.dcache.demandMshrMissRate::total     0.000517                       # mshr miss ratio for demand accesses (Ratio)
system.cpu.dcache.overallMshrMissRate::cpu.data     0.000516                       # mshr miss ratio for overall accesses (Ratio)
system.cpu.dcache.overallMshrMissRate::total     0.000516                       # mshr miss ratio for overall accesses (Ratio)
system.cpu.dcache.demandAvgMshrMissLatency::cpu.data 51813.733751                       # average overall mshr miss latency ((Cycle/Count))
system.cpu.dcache.demandAvgMshrMissLatency::total 51813.733751                       # average overall mshr miss latency ((Cycle/Count))
system.cpu.dcache.overallAvgMshrMissLatency::cpu.data 51826.356309                       # average overall mshr miss latency ((Cycle/Count))
system.cpu.dcache.overallAvgMshrMissLatency::total 51826.356309                       # average overall mshr miss latency ((Cycle/Count))
system.cpu.dcache.replacements                   6266                       # number of replacements (Count)
system.cpu.dcache.LoadLockedReq.hits::cpu.data            4                       # number of LoadLockedReq hits (Count)
system.cpu.dcache.LoadLockedReq.hits::total            4                       # number of LoadLockedReq hits (Count)
system.cpu.dcache.LoadLockedReq.accesses::cpu.data            4                       # number of LoadLockedReq accesses(hits+misses) (Count)
system.cpu.dcache.LoadLockedReq.accesses::total            4                       # number of LoadLockedReq accesses(hits+misses) (Count)
system.cpu.dcache.ReadReq.hits::cpu.data     10775924                       # number of ReadReq hits (Count)
system.cpu.dcache.ReadReq.hits::total        10775924                       # number of ReadReq hits (Count)
system.cpu.dcache.ReadReq.misses::cpu.data         9063                       # number of ReadReq misses (Count)
system.cpu.dcache.ReadReq.misses::total          9063                       # number of ReadReq misses (Count)
system.cpu.dcache.ReadReq.missLatency::cpu.data    566790500                       # number of ReadReq miss ticks (Tick)
system.cpu.dcache.ReadReq.missLatency::total    566790500                       # number of ReadReq miss ticks (Tick)
system.cpu.dcache.ReadReq.accesses::cpu.data     10784987                       # number of ReadReq accesses(hits+misses) (Count)
system.cpu.dcache.ReadReq.accesses::total     10784987                       # number of ReadReq accesses(hits+misses) (Count)
system.cpu.dcache.ReadReq.missRate::cpu.data     0.000840                       # miss rate for ReadReq accesses (Ratio)
system.cpu.dcache.ReadReq.missRate::total     0.000840                       # miss rate for ReadReq accesses (Ratio)
system.cpu.dcache.ReadReq.avgMissLatency::cpu.data 62538.949575                       # average ReadReq miss latency ((Tick/Count))
system.cpu.dcache.ReadReq.avgMissLatency::total 62538.949575                       # average ReadReq miss latency ((Tick/Count))
system.cpu.dcache.ReadReq.mshrHits::cpu.data         3587                       # number of ReadReq MSHR hits (Count)
system.cpu.dcache.ReadReq.mshrHits::total         3587                       # number of ReadReq MSHR hits (Count)
system.cpu.dcache.ReadReq.mshrMisses::cpu.data         5476                       # number of ReadReq MSHR misses (Count)
system.cpu.dcache.ReadReq.mshrMisses::total         5476                       # number of ReadReq MSHR misses (Count)
system.cpu.dcache.ReadReq.mshrMissLatency::cpu.data    331675000                       # number of ReadReq MSHR miss ticks (Tick)
system.cpu.dcache.ReadReq.mshrMissLatency::total    331675000                       # number of ReadReq MSHR miss ticks (Tick)
system.cpu.dcache.ReadReq.mshrMissRate::cpu.data     0.000508                       # mshr miss rate for ReadReq accesses (Ratio)
system.cpu.dcache.ReadReq.mshrMissRate::total     0.000508                       # mshr miss rate for ReadReq accesses (Ratio)
system.cpu.dcache.ReadReq.avgMshrMissLatency::cpu.data 60568.845873                       # average ReadReq mshr miss latency ((Tick/Count))
system.cpu.dcache.ReadReq.avgMshrMissLatency::total 60568.845873                       # average ReadReq mshr miss latency ((Tick/Count))
system.cpu.dcache.SoftPFReq.hits::cpu.data        29779                       # number of SoftPFReq hits (Count)
system.cpu.dcache.SoftPFReq.hits::total         29779                       # number of SoftPFReq hits (Count)
system.cpu.dcache.SoftPFReq.misses::cpu.data            5                       # number of SoftPFReq misses (Count)
system.cpu.dcache.SoftPFReq.misses::total            5                       # number of SoftPFReq misses (Count)
system.cpu.dcache.SoftPFReq.accesses::cpu.data        29784                       # number of SoftPFReq accesses(hits+misses) (Count)
system.cpu.dcache.SoftPFReq.accesses::total        29784                       # number of SoftPFReq accesses(hits+misses) (Count)
system.cpu.dcache.SoftPFReq.missRate::cpu.data     0.000168                       # miss rate for SoftPFReq accesses (Ratio)
system.cpu.dcache.SoftPFReq.missRate::total     0.000168                       # miss rate for SoftPFReq accesses (Ratio)
system.cpu.dcache.SoftPFReq.mshrMisses::cpu.data            5                       # number of SoftPFReq MSHR misses (Count)
system.cpu.dcache.SoftPFReq.mshrMisses::total            5                       # number of SoftPFReq MSHR misses (Count)
system.cpu.dcache.SoftPFReq.mshrMissLatency::cpu.data       364000                       # number of SoftPFReq MSHR miss ticks (Tick)
system.cpu.dcache.SoftPFReq.mshrMissLatency::total       364000                       # number of SoftPFReq MSHR miss ticks (Tick)
system.cpu.dcache.SoftPFReq.mshrMissRate::cpu.data     0.000168                       # mshr miss rate for SoftPFReq accesses (Ratio)
system.cpu.dcache.SoftPFReq.mshrMissRate::total     0.000168                       # mshr miss rate for SoftPFReq accesses (Ratio)
system.cpu.dcache.SoftPFReq.avgMshrMissLatency::cpu.data        72800                       # average SoftPFReq mshr miss latency ((Tick/Count))
system.cpu.dcache.SoftPFReq.avgMshrMissLatency::total        72800                       # average SoftPFReq mshr miss latency ((Tick/Count))
system.cpu.dcache.StoreCondReq.hits::cpu.data            4                       # number of StoreCondReq hits (Count)
system.cpu.dcache.StoreCondReq.hits::total            4                       # number of StoreCondReq hits (Count)
system.cpu.dcache.StoreCondReq.accesses::cpu.data            4                       # number of StoreCondReq accesses(hits+misses) (Count)
system.cpu.dcache.StoreCondReq.accesses::total            4                       # number of StoreCondReq accesses(hits+misses) (Count)
system.cpu.dcache.SwapReq.hits::cpu.data           19                       # number of SwapReq hits (Count)
system.cpu.dcache.SwapReq.hits::total              19                       # number of SwapReq hits (Count)
system.cpu.dcache.SwapReq.misses::cpu.data            1                       # number of SwapReq misses (Count)
system.cpu.dcache.SwapReq.misses::total             1                       # number of SwapReq misses (Count)
system.cpu.dcache.SwapReq.missLatency::cpu.data        56000                       # number of SwapReq miss ticks (Tick)
system.cpu.dcache.SwapReq.missLatency::total        56000                       # number of SwapReq miss ticks (Tick)
system.cpu.dcache.SwapReq.accesses::cpu.data           20                       # number of SwapReq accesses(hits+misses) (Count)
system.cpu.dcache.SwapReq.accesses::total           20                       # number of SwapReq accesses(hits+misses) (Count)
system.cpu.dcache.SwapReq.missRate::cpu.data     0.050000                       # miss rate for SwapReq accesses (Ratio)
system.cpu.dcache.SwapReq.missRate::total     0.050000                       # miss rate for SwapReq accesses (Ratio)
system.cpu.dcache.SwapReq.avgMissLatency::cpu.data        56000                       # average SwapReq miss latency ((Tick/Count))
system.cpu.dcache.SwapReq.avgMissLatency::total        56000                       # average SwapReq miss latency ((Tick/Count))
system.cpu.dcache.SwapReq.mshrMisses::cpu.data            1                       # number of SwapReq MSHR misses (Count)
system.cpu.dcache.SwapReq.mshrMisses::total            1                       # number of SwapReq MSHR misses (Count)
system.cpu.dcache.SwapReq.mshrMissLatency::cpu.data        55000                       # number of SwapReq MSHR miss ticks (Tick)
system.cpu.dcache.SwapReq.mshrMissLatency::total        55000                       # number of SwapReq MSHR miss ticks (Tick)
system.cpu.dcache.SwapReq.mshrMissRate::cpu.data     0.050000                       # mshr miss rate for SwapReq accesses (Ratio)
system.cpu.dcache.SwapReq.mshrMissRate::total     0.050000                       # mshr miss rate for SwapReq accesses (Ratio)
system.cpu.dcache.SwapReq.avgMshrMissLatency::cpu.data        55000                       # average SwapReq mshr miss latency ((Tick/Count))
system.cpu.dcache.SwapReq.avgMshrMissLatency::total        55000                       # average SwapReq mshr miss latency ((Tick/Count))
system.cpu.dcache.WriteLineReq.misses::cpu.data         1540                       # number of WriteLineReq misses (Count)
system.cpu.dcache.WriteLineReq.misses::total         1540                       # number of WriteLineReq misses (Count)
system.cpu.dcache.WriteLineReq.missLatency::cpu.data     15413000                       # number of WriteLineReq miss ticks (Tick)
system.cpu.dcache.WriteLineReq.missLatency::total     15413000                       # number of WriteLineReq miss ticks (Tick)
system.cpu.dcache.WriteLineReq.accesses::cpu.data         1540                       # number of WriteLineReq accesses(hits+misses) (Count)
system.cpu.dcache.WriteLineReq.accesses::total         1540                       # number of WriteLineReq accesses(hits+misses) (Count)
system.cpu.dcache.WriteLineReq.missRate::cpu.data            1                       # miss rate for WriteLineReq accesses (Ratio)
system.cpu.dcache.WriteLineReq.missRate::total            1                       # miss rate for WriteLineReq accesses (Ratio)
system.cpu.dcache.WriteLineReq.avgMissLatency::cpu.data 10008.441558                       # average WriteLineReq miss latency ((Tick/Count))
system.cpu.dcache.WriteLineReq.avgMissLatency::total 10008.441558                       # average WriteLineReq miss latency ((Tick/Count))
system.cpu.dcache.WriteLineReq.mshrMisses::cpu.data         1540                       # number of WriteLineReq MSHR misses (Count)
system.cpu.dcache.WriteLineReq.mshrMisses::total         1540                       # number of WriteLineReq MSHR misses (Count)
system.cpu.dcache.WriteLineReq.mshrMissLatency::cpu.data     13873000                       # number of WriteLineReq MSHR miss ticks (Tick)
system.cpu.dcache.WriteLineReq.mshrMissLatency::total     13873000                       # number of WriteLineReq MSHR miss ticks (Tick)
system.cpu.dcache.WriteLineReq.mshrMissRate::cpu.data            1                       # mshr miss rate for WriteLineReq accesses (Ratio)
system.cpu.dcache.WriteLineReq.mshrMissRate::total            1                       # mshr miss rate for WriteLineReq accesses (Ratio)
system.cpu.dcache.WriteLineReq.avgMshrMissLatency::cpu.data  9008.441558                       # average WriteLineReq mshr miss latency ((Tick/Count))
system.cpu.dcache.WriteLineReq.avgMshrMissLatency::total  9008.441558                       # average WriteLineReq mshr miss latency ((Tick/Count))
system.cpu.dcache.WriteReq.hits::cpu.data      5292403                       # number of WriteReq hits (Count)
system.cpu.dcache.WriteReq.hits::total        5292403                       # number of WriteReq hits (Count)
system.cpu.dcache.WriteReq.misses::cpu.data         1392                       # number of WriteReq misses (Count)
system.cpu.dcache.WriteReq.misses::total         1392                       # number of WriteReq misses (Count)
system.cpu.dcache.WriteReq.missLatency::cpu.data     92223000                       # number of WriteReq miss ticks (Tick)
system.cpu.dcache.WriteReq.missLatency::total     92223000                       # number of WriteReq miss ticks (Tick)
system.cpu.dcache.WriteReq.accesses::cpu.data      5293795                       # number of WriteReq accesses(hits+misses) (Count)
system.cpu.dcache.WriteReq.accesses::total      5293795                       # number of WriteReq accesses(hits+misses) (Count)
system.cpu.dcache.WriteReq.missRate::cpu.data     0.000263                       # miss rate for WriteReq accesses (Ratio)
system.cpu.dcache.WriteReq.missRate::total     0.000263                       # miss rate for WriteReq accesses (Ratio)
system.cpu.dcache.WriteReq.avgMissLatency::cpu.data 66252.155172                       # average WriteReq miss latency ((Tick/Count))
system.cpu.dcache.WriteReq.avgMissLatency::total 66252.155172                       # average WriteReq miss latency ((Tick/Count))
system.cpu.dcache.WriteReq.mshrHits::cpu.data          100                       # number of WriteReq MSHR hits (Count)
system.cpu.dcache.WriteReq.mshrHits::total          100                       # number of WriteReq MSHR hits (Count)
system.cpu.dcache.WriteReq.mshrMisses::cpu.data         1292                       # number of WriteReq MSHR misses (Count)
system.cpu.dcache.WriteReq.mshrMisses::total         1292                       # number of WriteReq MSHR misses (Count)
system.cpu.dcache.WriteReq.mshrMissLatency::cpu.data     84920500                       # number of WriteReq MSHR miss ticks (Tick)
system.cpu.dcache.WriteReq.mshrMissLatency::total     84920500                       # number of WriteReq MSHR miss ticks (Tick)
system.cpu.dcache.WriteReq.mshrMissRate::cpu.data     0.000244                       # mshr miss rate for WriteReq accesses (Ratio)
system.cpu.dcache.WriteReq.mshrMissRate::total     0.000244                       # mshr miss rate for WriteReq accesses (Ratio)
system.cpu.dcache.WriteReq.avgMshrMissLatency::cpu.data 65727.941176                       # average WriteReq mshr miss latency ((Tick/Count))
system.cpu.dcache.WriteReq.avgMshrMissLatency::total 65727.941176                       # average WriteReq mshr miss latency ((Tick/Count))
system.cpu.dcache.power_state.pwrStateResidencyTicks::UNDEFINED  30190053000                       # Cumulative time (in ticks) in various power states (Tick)
system.cpu.dcache.tags.tagsInUse          2037.868669                       # Average ticks per tags in use ((Tick/Count))
system.cpu.dcache.tags.totalRefs             16106447                       # Total number of references to valid blocks. (Count)
system.cpu.dcache.tags.sampledRefs               8314                       # Sample count of references to valid blocks. (Count)
system.cpu.dcache.tags.avgRefs            1937.268102                       # Average number of references to valid blocks. ((Count/Count))
system.cpu.dcache.tags.warmupTick              145000                       # The tick when the warmup percentage was hit. (Tick)
system.cpu.dcache.tags.occupancies::cpu.data  2037.868669                       # Average occupied blocks per tick, per requestor ((Count/Tick))
system.cpu.dcache.tags.avgOccs::cpu.data     0.995053                       # Average percentage of cache occupancy ((Ratio/Tick))
system.cpu.dcache.tags.avgOccs::total        0.995053                       # Average percentage of cache occupancy ((Ratio/Tick))
system.cpu.dcache.tags.occupanciesTaskId::1024         2048                       # Occupied blocks per task id (Count)
system.cpu.dcache.tags.ageTaskId_1024::0           28                       # Occupied blocks per task id, per block age (Count)
system.cpu.dcache.tags.ageTaskId_1024::1          335                       # Occupied blocks per task id, per block age (Count)
system.cpu.dcache.tags.ageTaskId_1024::2          583                       # Occupied blocks per task id, per block age (Count)
system.cpu.dcache.tags.ageTaskId_1024::3          847                       # Occupied blocks per task id, per block age (Count)
system.cpu.dcache.tags.ageTaskId_1024::4          255                       # Occupied blocks per task id, per block age (Count)
system.cpu.dcache.tags.ratioOccsTaskId::1024            1                       # Ratio of occupied blocks and all blocks, per task id (Ratio)
system.cpu.dcache.tags.tagAccesses           32228582                       # Number of tag accesses (Count)
system.cpu.dcache.tags.dataAccesses          32228582                       # Number of data accesses (Count)
system.cpu.dcache.tags.power_state.pwrStateResidencyTicks::UNDEFINED  30190053000                       # Cumulative time (in ticks) in various power states (Tick)
system.cpu.fetch2.intInstructions            26276211                       # Number of integer instructions successfully decoded (Count)
system.cpu.fetch2.fpInstructions                    0                       # Number of floating point instructions successfully decoded (Count)
system.cpu.fetch2.vecInstructions              994264                       # Number of SIMD instructions successfully decoded (Count)
system.cpu.fetch2.loadInstructions            9395831                       # Number of memory load instructions successfully decoded (Count)
system.cpu.fetch2.storeInstructions           3039508                       # Number of memory store instructions successfully decoded (Count)
system.cpu.fetch2.amoInstructions                  23                       # Number of memory atomic instructions successfully decoded (Count)
system.cpu.icache.demandHits::cpu.inst       13166227                       # number of demand (read+write) hits (Count)
system.cpu.icache.demandHits::total          13166227                       # number of demand (read+write) hits (Count)
system.cpu.icache.overallHits::cpu.inst      13166227                       # number of overall hits (Count)
system.cpu.icache.overallHits::total         13166227                       # number of overall hits (Count)
system.cpu.icache.demandMisses::cpu.inst        78915                       # number of demand (read+write) misses (Count)
system.cpu.icache.demandMisses::total           78915                       # number of demand (read+write) misses (Count)
system.cpu.icache.overallMisses::cpu.inst        78915                       # number of overall misses (Count)
system.cpu.icache.overallMisses::total          78915                       # number of overall misses (Count)
system.cpu.icache.demandMissLatency::cpu.inst   1856510500                       # number of demand (read+write) miss ticks (Tick)
system.cpu.icache.demandMissLatency::total   1856510500                       # number of demand (read+write) miss ticks (Tick)
system.cpu.icache.overallMissLatency::cpu.inst   1856510500                       # number of overall miss ticks (Tick)
system.cpu.icache.overallMissLatency::total   1856510500                       # number of overall miss ticks (Tick)
system.cpu.icache.demandAccesses::cpu.inst     13245142                       # number of demand (read+write) accesses (Count)
system.cpu.icache.demandAccesses::total      13245142                       # number of demand (read+write) accesses (Count)
system.cpu.icache.overallAccesses::cpu.inst     13245142                       # number of overall (read+write) accesses (Count)
system.cpu.icache.overallAccesses::total     13245142                       # number of overall (read+write) accesses (Count)
system.cpu.icache.demandMissRate::cpu.inst     0.005958                       # miss rate for demand accesses (Ratio)
system.cpu.icache.demandMissRate::total      0.005958                       # miss rate for demand accesses (Ratio)
system.cpu.icache.overallMissRate::cpu.inst     0.005958                       # miss rate for overall accesses (Ratio)
system.cpu.icache.overallMissRate::total     0.005958                       # miss rate for overall accesses (Ratio)
system.cpu.icache.demandAvgMissLatency::cpu.inst 23525.445099                       # average overall miss latency ((Cycle/Count))
system.cpu.icache.demandAvgMissLatency::total 23525.445099                       # average overall miss latency ((Cycle/Count))
system.cpu.icache.overallAvgMissLatency::cpu.inst 23525.445099                       # average overall miss latency ((Cycle/Count))
system.cpu.icache.overallAvgMissLatency::total 23525.445099                       # average overall miss latency ((Cycle/Count))
system.cpu.icache.blockedCycles::no_mshrs            0                       # number of cycles access was blocked (Cycle)
system.cpu.icache.blockedCycles::no_targets            0                       # number of cycles access was blocked (Cycle)
system.cpu.icache.blockedCauses::no_mshrs            0                       # number of times access was blocked (Count)
system.cpu.icache.blockedCauses::no_targets            0                       # number of times access was blocked (Count)
system.cpu.icache.avgBlocked::no_mshrs            nan                       # average number of cycles each access was blocked ((Cycle/Count))
system.cpu.icache.avgBlocked::no_targets          nan                       # average number of cycles each access was blocked ((Cycle/Count))
system.cpu.icache.writebacks::writebacks        78426                       # number of writebacks (Count)
system.cpu.icache.writebacks::total             78426                       # number of writebacks (Count)
system.cpu.icache.demandMshrMisses::cpu.inst        78915                       # number of demand (read+write) MSHR misses (Count)
system.cpu.icache.demandMshrMisses::total        78915                       # number of demand (read+write) MSHR misses (Count)
system.cpu.icache.overallMshrMisses::cpu.inst        78915                       # number of overall MSHR misses (Count)
system.cpu.icache.overallMshrMisses::total        78915                       # number of overall MSHR misses (Count)
system.cpu.icache.demandMshrMissLatency::cpu.inst   1777596500                       # number of demand (read+write) MSHR miss ticks (Tick)
system.cpu.icache.demandMshrMissLatency::total   1777596500                       # number of demand (read+write) MSHR miss ticks (Tick)
system.cpu.icache.overallMshrMissLatency::cpu.inst   1777596500                       # number of overall MSHR miss ticks (Tick)
system.cpu.icache.overallMshrMissLatency::total   1777596500                       # number of overall MSHR miss ticks (Tick)
system.cpu.icache.demandMshrMissRate::cpu.inst     0.005958                       # mshr miss ratio for demand accesses (Ratio)
system.cpu.icache.demandMshrMissRate::total     0.005958                       # mshr miss ratio for demand accesses (Ratio)
system.cpu.icache.overallMshrMissRate::cpu.inst     0.005958                       # mshr miss ratio for overall accesses (Ratio)
system.cpu.icache.overallMshrMissRate::total     0.005958                       # mshr miss ratio for overall accesses (Ratio)
system.cpu.icache.demandAvgMshrMissLatency::cpu.inst 22525.457771                       # average overall mshr miss latency ((Cycle/Count))
system.cpu.icache.demandAvgMshrMissLatency::total 22525.457771                       # average overall mshr miss latency ((Cycle/Count))
system.cpu.icache.overallAvgMshrMissLatency::cpu.inst 22525.457771                       # average overall mshr miss latency ((Cycle/Count))
system.cpu.icache.overallAvgMshrMissLatency::total 22525.457771                       # average overall mshr miss latency ((Cycle/Count))
system.cpu.icache.replacements                  78426                       # number of replacements (Count)
system.cpu.icache.ReadReq.hits::cpu.inst     13166227                       # number of ReadReq hits (Count)
system.cpu.icache.ReadReq.hits::total        13166227                       # number of ReadReq hits (Count)
system.cpu.icache.ReadReq.misses::cpu.inst        78915                       # number of ReadReq misses (Count)
system.cpu.icache.ReadReq.misses::total         78915                       # number of ReadReq misses (Count)
system.cpu.icache.ReadReq.missLatency::cpu.inst   1856510500                       # number of ReadReq miss ticks (Tick)
system.cpu.icache.ReadReq.missLatency::total   1856510500                       # number of ReadReq miss ticks (Tick)
system.cpu.icache.ReadReq.accesses::cpu.inst     13245142                       # number of ReadReq accesses(hits+misses) (Count)
system.cpu.icache.ReadReq.accesses::total     13245142                       # number of ReadReq accesses(hits+misses) (Count)
system.cpu.icache.ReadReq.missRate::cpu.inst     0.005958                       # miss rate for ReadReq accesses (Ratio)
system.cpu.icache.ReadReq.missRate::total     0.005958                       # miss rate for ReadReq accesses (Ratio)
system.cpu.icache.ReadReq.avgMissLatency::cpu.inst 23525.445099                       # average ReadReq miss latency ((Tick/Count))
system.cpu.icache.ReadReq.avgMissLatency::total 23525.445099                       # average ReadReq miss latency ((Tick/Count))
system.cpu.icache.ReadReq.mshrMisses::cpu.inst        78915                       # number of ReadReq MSHR misses (Count)
system.cpu.icache.ReadReq.mshrMisses::total        78915                       # number of ReadReq MSHR misses (Count)
system.cpu.icache.ReadReq.mshrMissLatency::cpu.inst   1777596500                       # number of ReadReq MSHR miss ticks (Tick)
system.cpu.icache.ReadReq.mshrMissLatency::total   1777596500                       # number of ReadReq MSHR miss ticks (Tick)
system.cpu.icache.ReadReq.mshrMissRate::cpu.inst     0.005958                       # mshr miss rate for ReadReq accesses (Ratio)
system.cpu.icache.ReadReq.mshrMissRate::total     0.005958                       # mshr miss rate for ReadReq accesses (Ratio)
system.cpu.icache.ReadReq.avgMshrMissLatency::cpu.inst 22525.457771                       # average ReadReq mshr miss latency ((Tick/Count))
system.cpu.icache.ReadReq.avgMshrMissLatency::total 22525.457771                       # average ReadReq mshr miss latency ((Tick/Count))
system.cpu.icache.power_state.pwrStateResidencyTicks::UNDEFINED  30190053000                       # Cumulative time (in ticks) in various power states (Tick)
system.cpu.icache.tags.tagsInUse           425.968352                       # Average ticks per tags in use ((Tick/Count))
system.cpu.icache.tags.totalRefs             13245141                       # Total number of references to valid blocks. (Count)
system.cpu.icache.tags.sampledRefs              78914                       # Sample count of references to valid blocks. (Count)
system.cpu.icache.tags.avgRefs             167.842728                       # Average number of references to valid blocks. ((Count/Count))
system.cpu.icache.tags.warmupTick               77000                       # The tick when the warmup percentage was hit. (Tick)
system.cpu.icache.tags.occupancies::cpu.inst   425.968352                       # Average occupied blocks per tick, per requestor ((Count/Tick))
system.cpu.icache.tags.avgOccs::cpu.inst     0.831969                       # Average percentage of cache occupancy ((Ratio/Tick))
system.cpu.icache.tags.avgOccs::total        0.831969                       # Average percentage of cache occupancy ((Ratio/Tick))
system.cpu.icache.tags.occupanciesTaskId::1024          488                       # Occupied blocks per task id (Count)
system.cpu.icache.tags.ageTaskId_1024::0          133                       # Occupied blocks per task id, per block age (Count)
system.cpu.icache.tags.ageTaskId_1024::1           24                       # Occupied blocks per task id, per block age (Count)
system.cpu.icache.tags.ageTaskId_1024::2           26                       # Occupied blocks per task id, per block age (Count)
system.cpu.icache.tags.ageTaskId_1024::3           87                       # Occupied blocks per task id, per block age (Count)
system.cpu.icache.tags.ageTaskId_1024::4          218                       # Occupied blocks per task id, per block age (Count)
system.cpu.icache.tags.ratioOccsTaskId::1024     0.953125                       # Ratio of occupied blocks and all blocks, per task id (Ratio)
system.cpu.icache.tags.tagAccesses           26569198                       # Number of tag accesses (Count)
system.cpu.icache.tags.dataAccesses          26569198                       # Number of data accesses (Count)
system.cpu.icache.tags.power_state.pwrStateResidencyTicks::UNDEFINED  30190053000                       # Cumulative time (in ticks) in various power states (Tick)
system.cpu.mmu.alignFaults                          0                       # Number of MMU faults due to alignment restrictions (Count)
system.cpu.mmu.prefetchFaults                       0                       # Number of MMU faults due to prefetch (Count)
system.cpu.mmu.domainFaults                         0                       # Number of MMU faults due to domain restrictions (Count)
system.cpu.mmu.permsFaults                          0                       # Number of MMU faults due to permissions restrictions (Count)
system.cpu.mmu.dtb.readHits                         0                       # Read hits (Count)
system.cpu.mmu.dtb.readMisses                       0                       # Read misses (Count)
system.cpu.mmu.dtb.writeHits                        0                       # Write hits (Count)
system.cpu.mmu.dtb.writeMisses                      0                       # Write misses (Count)
system.cpu.mmu.dtb.inserts                          0                       # Number of times an entry is inserted into the TLB (Count)
system.cpu.mmu.dtb.flushTlb                         1                       # Number of times complete TLB was flushed (Count)
system.cpu.mmu.dtb.flushTlbMva                      0                       # Number of times TLB was flushed by MVA (Count)
system.cpu.mmu.dtb.flushTlbMvaAsid                  0                       # Number of times TLB was flushed by MVA & ASID (Count)
system.cpu.mmu.dtb.flushTlbAsid                     0                       # Number of times TLB was flushed by ASID (Count)
system.cpu.mmu.dtb.flushedEntries                   0                       # Number of entries that have been flushed from TLB (Count)
system.cpu.mmu.dtb.readAccesses                     0                       # Read accesses (Count)
system.cpu.mmu.dtb.writeAccesses                    0                       # Write accesses (Count)
system.cpu.mmu.dtb.hits                             0                       # Total TLB (inst and data) hits (Count)
system.cpu.mmu.dtb.misses                           0                       # Total TLB (inst and data) misses (Count)
system.cpu.mmu.dtb.accesses                         0                       # Total TLB (inst and data) accesses (Count)
system.cpu.mmu.dtb_walker.walks                     0                       # Table walker walks requested (Count)
system.cpu.mmu.dtb_walker.requestOrigin_Requested::Data            0                       # Table walker requests started/completed, data/inst (Count)
system.cpu.mmu.dtb_walker.requestOrigin_Requested::Inst            0                       # Table walker requests started/completed, data/inst (Count)
system.cpu.mmu.dtb_walker.requestOrigin_Requested::total            0                       # Table walker requests started/completed, data/inst (Count)
system.cpu.mmu.dtb_walker.requestOrigin_Completed::Data            0                       # Table walker requests started/completed, data/inst (Count)
system.cpu.mmu.dtb_walker.requestOrigin_Completed::Inst            0                       # Table walker requests started/completed, data/inst (Count)
system.cpu.mmu.dtb_walker.requestOrigin_Completed::total            0                       # Table walker requests started/completed, data/inst (Count)
system.cpu.mmu.dtb_walker.requestOrigin::total            0                       # Table walker requests started/completed, data/inst (Count)
system.cpu.mmu.dtb_walker.power_state.pwrStateResidencyTicks::UNDEFINED  30190053000                       # Cumulative time (in ticks) in various power states (Tick)
system.cpu.mmu.itb.instHits                         0                       # Inst hits (Count)
system.cpu.mmu.itb.instMisses                       0                       # Inst misses (Count)
system.cpu.mmu.itb.inserts                          0                       # Number of times an entry is inserted into the TLB (Count)
system.cpu.mmu.itb.flushTlb                         1                       # Number of times complete TLB was flushed (Count)
system.cpu.mmu.itb.flushTlbMva                      0                       # Number of times TLB was flushed by MVA (Count)
system.cpu.mmu.itb.flushTlbMvaAsid                  0                       # Number of times TLB was flushed by MVA & ASID (Count)
system.cpu.mmu.itb.flushTlbAsid                     0                       # Number of times TLB was flushed by ASID (Count)
system.cpu.mmu.itb.flushedEntries                   0                       # Number of entries that have been flushed from TLB (Count)
system.cpu.mmu.itb.instAccesses                     0                       # Inst accesses (Count)
system.cpu.mmu.itb.hits                             0                       # Total TLB (inst and data) hits (Count)
system.cpu.mmu.itb.misses                           0                       # Total TLB (inst and data) misses (Count)
system.cpu.mmu.itb.accesses                         0                       # Total TLB (inst and data) accesses (Count)
system.cpu.mmu.itb_walker.walks                     0                       # Table walker walks requested (Count)
system.cpu.mmu.itb_walker.requestOrigin_Requested::Data            0                       # Table walker requests started/completed, data/inst (Count)
system.cpu.mmu.itb_walker.requestOrigin_Requested::Inst            0                       # Table walker requests started/completed, data/inst (Count)
system.cpu.mmu.itb_walker.requestOrigin_Requested::total            0                       # Table walker requests started/completed, data/inst (Count)
system.cpu.mmu.itb_walker.requestOrigin_Completed::Data            0                       # Table walker requests started/completed, data/inst (Count)
system.cpu.mmu.itb_walker.requestOrigin_Completed::Inst            0                       # Table walker requests started/completed, data/inst (Count)
system.cpu.mmu.itb_walker.requestOrigin_Completed::total            0                       # Table walker requests started/completed, data/inst (Count)
system.cpu.mmu.itb_walker.requestOrigin::total            0                       # Table walker requests started/completed, data/inst (Count)
system.cpu.mmu.itb_walker.power_state.pwrStateResidencyTicks::UNDEFINED  30190053000                       # Cumulative time (in ticks) in various power states (Tick)
system.cpu.mmu.l2_shared.instHits                   0                       # Inst hits (Count)
system.cpu.mmu.l2_shared.instMisses                 0                       # Inst misses (Count)
system.cpu.mmu.l2_shared.inserts                    0                       # Number of times an entry is inserted into the TLB (Count)
system.cpu.mmu.l2_shared.flushTlb                   1                       # Number of times complete TLB was flushed (Count)
system.cpu.mmu.l2_shared.flushTlbMva                0                       # Number of times TLB was flushed by MVA (Count)
system.cpu.mmu.l2_shared.flushTlbMvaAsid            0                       # Number of times TLB was flushed by MVA & ASID (Count)
system.cpu.mmu.l2_shared.flushTlbAsid               0                       # Number of times TLB was flushed by ASID (Count)
system.cpu.mmu.l2_shared.flushedEntries             0                       # Number of entries that have been flushed from TLB (Count)
system.cpu.mmu.l2_shared.instAccesses               0                       # Inst accesses (Count)
system.cpu.mmu.l2_shared.hits                       0                       # Total TLB (inst and data) hits (Count)
system.cpu.mmu.l2_shared.misses                     0                       # Total TLB (inst and data) misses (Count)
system.cpu.mmu.l2_shared.accesses                   0                       # Total TLB (inst and data) accesses (Count)
system.cpu.mmu.stage2_dtb.readHits                  0                       # Read hits (Count)
system.cpu.mmu.stage2_dtb.readMisses                0                       # Read misses (Count)
system.cpu.mmu.stage2_dtb.writeHits                 0                       # Write hits (Count)
system.cpu.mmu.stage2_dtb.writeMisses               0                       # Write misses (Count)
system.cpu.mmu.stage2_dtb.inserts                   0                       # Number of times an entry is inserted into the TLB (Count)
system.cpu.mmu.stage2_dtb.flushTlb                  1                       # Number of times complete TLB was flushed (Count)
system.cpu.mmu.stage2_dtb.flushTlbMva               0                       # Number of times TLB was flushed by MVA (Count)
system.cpu.mmu.stage2_dtb.flushTlbMvaAsid            0                       # Number of times TLB was flushed by MVA & ASID (Count)
system.cpu.mmu.stage2_dtb.flushTlbAsid              0                       # Number of times TLB was flushed by ASID (Count)
system.cpu.mmu.stage2_dtb.flushedEntries            0                       # Number of entries that have been flushed from TLB (Count)
system.cpu.mmu.stage2_dtb.readAccesses              0                       # Read accesses (Count)
system.cpu.mmu.stage2_dtb.writeAccesses             0                       # Write accesses (Count)
system.cpu.mmu.stage2_dtb.hits                      0                       # Total TLB (inst and data) hits (Count)
system.cpu.mmu.stage2_dtb.misses                    0                       # Total TLB (inst and data) misses (Count)
system.cpu.mmu.stage2_dtb.accesses                  0                       # Total TLB (inst and data) accesses (Count)
system.cpu.mmu.stage2_dtb_walker.walks              0                       # Table walker walks requested (Count)
system.cpu.mmu.stage2_dtb_walker.requestOrigin_Requested::Data            0                       # Table walker requests started/completed, data/inst (Count)
system.cpu.mmu.stage2_dtb_walker.requestOrigin_Requested::Inst            0                       # Table walker requests started/completed, data/inst (Count)
system.cpu.mmu.stage2_dtb_walker.requestOrigin_Requested::total            0                       # Table walker requests started/completed, data/inst (Count)
system.cpu.mmu.stage2_dtb_walker.requestOrigin_Completed::Data            0                       # Table walker requests started/completed, data/inst (Count)
system.cpu.mmu.stage2_dtb_walker.requestOrigin_Completed::Inst            0                       # Table walker requests started/completed, data/inst (Count)
system.cpu.mmu.stage2_dtb_walker.requestOrigin_Completed::total            0                       # Table walker requests started/completed, data/inst (Count)
system.cpu.mmu.stage2_dtb_walker.requestOrigin::total            0                       # Table walker requests started/completed, data/inst (Count)
system.cpu.mmu.stage2_dtb_walker.power_state.pwrStateResidencyTicks::UNDEFINED  30190053000                       # Cumulative time (in ticks) in various power states (Tick)
system.cpu.mmu.stage2_itb.instHits                  0                       # Inst hits (Count)
system.cpu.mmu.stage2_itb.instMisses                0                       # Inst misses (Count)
system.cpu.mmu.stage2_itb.inserts                   0                       # Number of times an entry is inserted into the TLB (Count)
system.cpu.mmu.stage2_itb.flushTlb                  1                       # Number of times complete TLB was flushed (Count)
system.cpu.mmu.stage2_itb.flushTlbMva               0                       # Number of times TLB was flushed by MVA (Count)
system.cpu.mmu.stage2_itb.flushTlbMvaAsid            0                       # Number of times TLB was flushed by MVA & ASID (Count)
system.cpu.mmu.stage2_itb.flushTlbAsid              0                       # Number of times TLB was flushed by ASID (Count)
system.cpu.mmu.stage2_itb.flushedEntries            0                       # Number of entries that have been flushed from TLB (Count)
system.cpu.mmu.stage2_itb.instAccesses              0                       # Inst accesses (Count)
system.cpu.mmu.stage2_itb.hits                      0                       # Total TLB (inst and data) hits (Count)
system.cpu.mmu.stage2_itb.misses                    0                       # Total TLB (inst and data) misses (Count)
system.cpu.mmu.stage2_itb.accesses                  0                       # Total TLB (inst and data) accesses (Count)
system.cpu.mmu.stage2_itb_walker.walks              0                       # Table walker walks requested (Count)
system.cpu.mmu.stage2_itb_walker.requestOrigin_Requested::Data            0                       # Table walker requests started/completed, data/inst (Count)
system.cpu.mmu.stage2_itb_walker.requestOrigin_Requested::Inst            0                       # Table walker requests started/completed, data/inst (Count)
system.cpu.mmu.stage2_itb_walker.requestOrigin_Requested::total            0                       # Table walker requests started/completed, data/inst (Count)
system.cpu.mmu.stage2_itb_walker.requestOrigin_Completed::Data            0                       # Table walker requests started/completed, data/inst (Count)
system.cpu.mmu.stage2_itb_walker.requestOrigin_Completed::Inst            0                       # Table walker requests started/completed, data/inst (Count)
system.cpu.mmu.stage2_itb_walker.requestOrigin_Completed::total            0                       # Table walker requests started/completed, data/inst (Count)
system.cpu.mmu.stage2_itb_walker.requestOrigin::total            0                       # Table walker requests started/completed, data/inst (Count)
system.cpu.mmu.stage2_itb_walker.power_state.pwrStateResidencyTicks::UNDEFINED  30190053000                       # Cumulative time (in ticks) in various power states (Tick)
system.cpu.power_state.pwrStateResidencyTicks::ON  30190053000                       # Cumulative time (in ticks) in various power states (Tick)
system.cpu.thread_0.numInsts                 46390398                       # Number of Instructions committed (Count)
system.cpu.thread_0.numOps                   50730771                       # Number of Ops committed (Count)
system.cpu.thread_0.numMemRefs                      0                       # Number of Memory References (Count)
system.cpu.workload.numSyscalls                  4122                       # Number of system calls (Count)
system.cpu_clk_domain.clock                       500                       # Clock period in ticks (Tick)
system.cpu_voltage_domain.voltage                   1                       # Voltage in Volts (Volt)
system.mem_ctrls.avgPriority_writebacks::samples      6217.00                       # Average QoS priority value for accepted requests (Count)
system.mem_ctrls.avgPriority_cpu.inst::samples      1103.00                       # Average QoS priority value for accepted requests (Count)
system.mem_ctrls.avgPriority_cpu.data::samples      6749.00                       # Average QoS priority value for accepted requests (Count)
system.mem_ctrls.priorityMinLatency      0.000000018750                       # per QoS priority minimum request to response latency (Second)
system.mem_ctrls.priorityMaxLatency      0.026050828500                       # per QoS priority maximum request to response latency (Second)
system.mem_ctrls.numReadWriteTurnArounds          350                       # Number of turnarounds from READ to WRITE (Count)
system.mem_ctrls.numWriteReadTurnArounds          350                       # Number of turnarounds from WRITE to READ (Count)
system.mem_ctrls.numStayReadState              107346                       # Number of times bus staying in READ state (Count)
system.mem_ctrls.numStayWriteState               5852                       # Number of times bus staying in WRITE state (Count)
system.mem_ctrls.readReqs                       85689                       # Number of read requests accepted (Count)
system.mem_ctrls.writeReqs                      83984                       # Number of write requests accepted (Count)
system.mem_ctrls.readBursts                     85689                       # Number of controller read bursts, including those serviced by the write queue (Count)
system.mem_ctrls.writeBursts                    83984                       # Number of controller write bursts, including those merged in the write queue (Count)
system.mem_ctrls.servicedByWrQ                  77837                       # Number of controller read bursts serviced by the write queue (Count)
system.mem_ctrls.mergedWrBursts                 77767                       # Number of controller write bursts merged with an existing one (Count)
system.mem_ctrls.neitherReadNorWriteReqs            0                       # Number of requests that are neither read nor write (Count)
system.mem_ctrls.avgRdQLen                       1.00                       # Average read queue length when enqueuing ((Count/Tick))
system.mem_ctrls.avgWrQLen                      23.86                       # Average write queue length when enqueuing ((Count/Tick))
system.mem_ctrls.numRdRetry                         0                       # Number of times read queue was full causing retry (Count)
system.mem_ctrls.numWrRetry                         0                       # Number of times write queue was full causing retry (Count)
system.mem_ctrls.readPktSize::0                     0                       # Read request sizes (log2) (Count)
system.mem_ctrls.readPktSize::1                     0                       # Read request sizes (log2) (Count)
system.mem_ctrls.readPktSize::2                     0                       # Read request sizes (log2) (Count)
system.mem_ctrls.readPktSize::3                     0                       # Read request sizes (log2) (Count)
system.mem_ctrls.readPktSize::4                     0                       # Read request sizes (log2) (Count)
system.mem_ctrls.readPktSize::5                     0                       # Read request sizes (log2) (Count)
system.mem_ctrls.readPktSize::6                 85689                       # Read request sizes (log2) (Count)
system.mem_ctrls.writePktSize::0                    0                       # Write request sizes (log2) (Count)
system.mem_ctrls.writePktSize::1                    0                       # Write request sizes (log2) (Count)
system.mem_ctrls.writePktSize::2                    0                       # Write request sizes (log2) (Count)
system.mem_ctrls.writePktSize::3                    0                       # Write request sizes (log2) (Count)
system.mem_ctrls.writePktSize::4                    0                       # Write request sizes (log2) (Count)
system.mem_ctrls.writePktSize::5                    0                       # Write request sizes (log2) (Count)
system.mem_ctrls.writePktSize::6                83984                       # Write request sizes (log2) (Count)
system.mem_ctrls.rdQLenPdf::0                    7640                       # What read queue length does an incoming req see (Count)
system.mem_ctrls.rdQLenPdf::1                     205                       # What read queue length does an incoming req see (Count)
system.mem_ctrls.rdQLenPdf::2                       7                       # What read queue length does an incoming req see (Count)
system.mem_ctrls.rdQLenPdf::3                       0                       # What read queue length does an incoming req see (Count)
system.mem_ctrls.rdQLenPdf::4                       0                       # What read queue length does an incoming req see (Count)
system.mem_ctrls.rdQLenPdf::5                       0                       # What read queue length does an incoming req see (Count)
system.mem_ctrls.rdQLenPdf::6                       0                       # What read queue length does an incoming req see (Count)
system.mem_ctrls.rdQLenPdf::7                       0                       # What read queue length does an incoming req see (Count)
system.mem_ctrls.rdQLenPdf::8                       0                       # What read queue length does an incoming req see (Count)
system.mem_ctrls.rdQLenPdf::9                       0                       # What read queue length does an incoming req see (Count)
system.mem_ctrls.rdQLenPdf::10                      0                       # What read queue length does an incoming req see (Count)
system.mem_ctrls.rdQLenPdf::11                      0                       # What read queue length does an incoming req see (Count)
system.mem_ctrls.rdQLenPdf::12                      0                       # What read queue length does an incoming req see (Count)
system.mem_ctrls.rdQLenPdf::13                      0                       # What read queue length does an incoming req see (Count)
system.mem_ctrls.rdQLenPdf::14                      0                       # What read queue length does an incoming req see (Count)
system.mem_ctrls.rdQLenPdf::15                      0                       # What read queue length does an incoming req see (Count)
system.mem_ctrls.rdQLenPdf::16                      0                       # What read queue length does an incoming req see (Count)
system.mem_ctrls.rdQLenPdf::17                      0                       # What read queue length does an incoming req see (Count)
system.mem_ctrls.rdQLenPdf::18                      0                       # What read queue length does an incoming req see (Count)
system.mem_ctrls.rdQLenPdf::19                      0                       # What read queue length does an incoming req see (Count)
system.mem_ctrls.rdQLenPdf::20                      0                       # What read queue length does an incoming req see (Count)
system.mem_ctrls.rdQLenPdf::21                      0                       # What read queue length does an incoming req see (Count)
system.mem_ctrls.rdQLenPdf::22                      0                       # What read queue length does an incoming req see (Count)
system.mem_ctrls.rdQLenPdf::23                      0                       # What read queue length does an incoming req see (Count)
system.mem_ctrls.rdQLenPdf::24                      0                       # What read queue length does an incoming req see (Count)
system.mem_ctrls.rdQLenPdf::25                      0                       # What read queue length does an incoming req see (Count)
system.mem_ctrls.rdQLenPdf::26                      0                       # What read queue length does an incoming req see (Count)
system.mem_ctrls.rdQLenPdf::27                      0                       # What read queue length does an incoming req see (Count)
system.mem_ctrls.rdQLenPdf::28                      0                       # What read queue length does an incoming req see (Count)
system.mem_ctrls.rdQLenPdf::29                      0                       # What read queue length does an incoming req see (Count)
system.mem_ctrls.rdQLenPdf::30                      0                       # What read queue length does an incoming req see (Count)
system.mem_ctrls.rdQLenPdf::31                      0                       # What read queue length does an incoming req see (Count)
system.mem_ctrls.wrQLenPdf::0                       1                       # What write queue length does an incoming req see (Count)
system.mem_ctrls.wrQLenPdf::1                       1                       # What write queue length does an incoming req see (Count)
system.mem_ctrls.wrQLenPdf::2                       1                       # What write queue length does an incoming req see (Count)
system.mem_ctrls.wrQLenPdf::3                       1                       # What write queue length does an incoming req see (Count)
system.mem_ctrls.wrQLenPdf::4                       1                       # What write queue length does an incoming req see (Count)
system.mem_ctrls.wrQLenPdf::5                       1                       # What write queue length does an incoming req see (Count)
system.mem_ctrls.wrQLenPdf::6                       1                       # What write queue length does an incoming req see (Count)
system.mem_ctrls.wrQLenPdf::7                       1                       # What write queue length does an incoming req see (Count)
system.mem_ctrls.wrQLenPdf::8                       1                       # What write queue length does an incoming req see (Count)
system.mem_ctrls.wrQLenPdf::9                       1                       # What write queue length does an incoming req see (Count)
system.mem_ctrls.wrQLenPdf::10                      1                       # What write queue length does an incoming req see (Count)
system.mem_ctrls.wrQLenPdf::11                      1                       # What write queue length does an incoming req see (Count)
system.mem_ctrls.wrQLenPdf::12                      1                       # What write queue length does an incoming req see (Count)
system.mem_ctrls.wrQLenPdf::13                      1                       # What write queue length does an incoming req see (Count)
system.mem_ctrls.wrQLenPdf::14                      1                       # What write queue length does an incoming req see (Count)
system.mem_ctrls.wrQLenPdf::15                    297                       # What write queue length does an incoming req see (Count)
system.mem_ctrls.wrQLenPdf::16                    297                       # What write queue length does an incoming req see (Count)
system.mem_ctrls.wrQLenPdf::17                    341                       # What write queue length does an incoming req see (Count)
system.mem_ctrls.wrQLenPdf::18                    352                       # What write queue length does an incoming req see (Count)
system.mem_ctrls.wrQLenPdf::19                    354                       # What write queue length does an incoming req see (Count)
system.mem_ctrls.wrQLenPdf::20                    351                       # What write queue length does an incoming req see (Count)
system.mem_ctrls.wrQLenPdf::21                    353                       # What write queue length does an incoming req see (Count)
system.mem_ctrls.wrQLenPdf::22                    353                       # What write queue length does an incoming req see (Count)
system.mem_ctrls.wrQLenPdf::23                    350                       # What write queue length does an incoming req see (Count)
system.mem_ctrls.wrQLenPdf::24                    352                       # What write queue length does an incoming req see (Count)
system.mem_ctrls.wrQLenPdf::25                    350                       # What write queue length does an incoming req see (Count)
system.mem_ctrls.wrQLenPdf::26                    350                       # What write queue length does an incoming req see (Count)
system.mem_ctrls.wrQLenPdf::27                    351                       # What write queue length does an incoming req see (Count)
system.mem_ctrls.wrQLenPdf::28                    350                       # What write queue length does an incoming req see (Count)
system.mem_ctrls.wrQLenPdf::29                    351                       # What write queue length does an incoming req see (Count)
system.mem_ctrls.wrQLenPdf::30                    350                       # What write queue length does an incoming req see (Count)
system.mem_ctrls.wrQLenPdf::31                    350                       # What write queue length does an incoming req see (Count)
system.mem_ctrls.wrQLenPdf::32                    350                       # What write queue length does an incoming req see (Count)
system.mem_ctrls.wrQLenPdf::33                      0                       # What write queue length does an incoming req see (Count)
system.mem_ctrls.wrQLenPdf::34                      0                       # What write queue length does an incoming req see (Count)
system.mem_ctrls.wrQLenPdf::35                      0                       # What write queue length does an incoming req see (Count)
system.mem_ctrls.wrQLenPdf::36                      0                       # What write queue length does an incoming req see (Count)
system.mem_ctrls.wrQLenPdf::37                      0                       # What write queue length does an incoming req see (Count)
system.mem_ctrls.wrQLenPdf::38                      0                       # What write queue length does an incoming req see (Count)
system.mem_ctrls.wrQLenPdf::39                      0                       # What write queue length does an incoming req see (Count)
system.mem_ctrls.wrQLenPdf::40                      0                       # What write queue length does an incoming req see (Count)
system.mem_ctrls.wrQLenPdf::41                      0                       # What write queue length does an incoming req see (Count)
system.mem_ctrls.wrQLenPdf::42                      0                       # What write queue length does an incoming req see (Count)
system.mem_ctrls.wrQLenPdf::43                      0                       # What write queue length does an incoming req see (Count)
system.mem_ctrls.wrQLenPdf::44                      0                       # What write queue length does an incoming req see (Count)
system.mem_ctrls.wrQLenPdf::45                      0                       # What write queue length does an incoming req see (Count)
system.mem_ctrls.wrQLenPdf::46                      0                       # What write queue length does an incoming req see (Count)
system.mem_ctrls.wrQLenPdf::47                      0                       # What write queue length does an incoming req see (Count)
system.mem_ctrls.wrQLenPdf::48                      0                       # What write queue length does an incoming req see (Count)
system.mem_ctrls.wrQLenPdf::49                      0                       # What write queue length does an incoming req see (Count)
system.mem_ctrls.wrQLenPdf::50                      0                       # What write queue length does an incoming req see (Count)
system.mem_ctrls.wrQLenPdf::51                      0                       # What write queue length does an incoming req see (Count)
system.mem_ctrls.wrQLenPdf::52                      0                       # What write queue length does an incoming req see (Count)
system.mem_ctrls.wrQLenPdf::53                      0                       # What write queue length does an incoming req see (Count)
system.mem_ctrls.wrQLenPdf::54                      0                       # What write queue length does an incoming req see (Count)
system.mem_ctrls.wrQLenPdf::55                      0                       # What write queue length does an incoming req see (Count)
system.mem_ctrls.wrQLenPdf::56                      0                       # What write queue length does an incoming req see (Count)
system.mem_ctrls.wrQLenPdf::57                      0                       # What write queue length does an incoming req see (Count)
system.mem_ctrls.wrQLenPdf::58                      0                       # What write queue length does an incoming req see (Count)
system.mem_ctrls.wrQLenPdf::59                      0                       # What write queue length does an incoming req see (Count)
system.mem_ctrls.wrQLenPdf::60                      0                       # What write queue length does an incoming req see (Count)
system.mem_ctrls.wrQLenPdf::61                      0                       # What write queue length does an incoming req see (Count)
system.mem_ctrls.wrQLenPdf::62                      0                       # What write queue length does an incoming req see (Count)
system.mem_ctrls.wrQLenPdf::63                      0                       # What write queue length does an incoming req see (Count)
system.mem_ctrls.rdPerTurnAround::samples          350                       # Reads before turning the bus around for writes (Count)
system.mem_ctrls.rdPerTurnAround::mean      22.417143                       # Reads before turning the bus around for writes (Count)
system.mem_ctrls.rdPerTurnAround::gmean     19.620603                       # Reads before turning the bus around for writes (Count)
system.mem_ctrls.rdPerTurnAround::stdev     30.131284                       # Reads before turning the bus around for writes (Count)
system.mem_ctrls.rdPerTurnAround::0-15              9      2.57%      2.57% # Reads before turning the bus around for writes (Count)
system.mem_ctrls.rdPerTurnAround::16-31           325     92.86%     95.43% # Reads before turning the bus around for writes (Count)
system.mem_ctrls.rdPerTurnAround::32-47             7      2.00%     97.43% # Reads before turning the bus around for writes (Count)
system.mem_ctrls.rdPerTurnAround::48-63             3      0.86%     98.29% # Reads before turning the bus around for writes (Count)
system.mem_ctrls.rdPerTurnAround::80-95             3      0.86%     99.14% # Reads before turning the bus around for writes (Count)
system.mem_ctrls.rdPerTurnAround::144-159            1      0.29%     99.43% # Reads before turning the bus around for writes (Count)
system.mem_ctrls.rdPerTurnAround::304-319            1      0.29%     99.71% # Reads before turning the bus around for writes (Count)
system.mem_ctrls.rdPerTurnAround::448-463            1      0.29%    100.00% # Reads before turning the bus around for writes (Count)
system.mem_ctrls.rdPerTurnAround::total           350                       # Reads before turning the bus around for writes (Count)
system.mem_ctrls.wrPerTurnAround::samples          350                       # Writes before turning the bus around for reads (Count)
system.mem_ctrls.wrPerTurnAround::mean      17.700000                       # Writes before turning the bus around for reads (Count)
system.mem_ctrls.wrPerTurnAround::gmean     17.684047                       # Writes before turning the bus around for reads (Count)
system.mem_ctrls.wrPerTurnAround::stdev      0.732973                       # Writes before turning the bus around for reads (Count)
system.mem_ctrls.wrPerTurnAround::16               54     15.43%     15.43% # Writes before turning the bus around for reads (Count)
system.mem_ctrls.wrPerTurnAround::18              293     83.71%     99.14% # Writes before turning the bus around for reads (Count)
system.mem_ctrls.wrPerTurnAround::19                3      0.86%    100.00% # Writes before turning the bus around for reads (Count)
system.mem_ctrls.wrPerTurnAround::total           350                       # Writes before turning the bus around for reads (Count)
system.mem_ctrls.bytesReadWrQ                 4981568                       # Total number of bytes read from write queue (Byte)
[...]
system.mem_ctrls.dram.bwInstRead::cpu.inst    167290067                       # Instruction read bandwidth from this memory ((Byte/Second))
system.mem_ctrls.dram.bwInstRead::total     167290067                       # Instruction read bandwidth from this memory ((Byte/Second))
system.mem_ctrls.dram.bwWrite::writebacks     11784544                       # Write bandwidth from this memory ((Byte/Second))
system.mem_ctrls.dram.bwWrite::total         11784544                       # Write bandwidth from this memory ((Byte/Second))
system.mem_ctrls.dram.bwTotal::writebacks     11784544                       # Total bandwidth to/from this memory ((Byte/Second))
system.mem_ctrls.dram.bwTotal::cpu.inst     167290067                       # Total bandwidth to/from this memory ((Byte/Second))
system.mem_ctrls.dram.bwTotal::cpu.data      14360227                       # Total bandwidth to/from this memory ((Byte/Second))
system.mem_ctrls.dram.bwTotal::total        193434838                       # Total bandwidth to/from this memory ((Byte/Second))
system.mem_ctrls.dram.readBursts                 7852                       # Number of DRAM read bursts (Count)
system.mem_ctrls.dram.writeBursts                6195                       # Number of DRAM write bursts (Count)
system.mem_ctrls.dram.perBankRdBursts::0          626                       # Per bank write bursts (Count)
system.mem_ctrls.dram.perBankRdBursts::1          610                       # Per bank write bursts (Count)
system.mem_ctrls.dram.perBankRdBursts::2          457                       # Per bank write bursts (Count)
system.mem_ctrls.dram.perBankRdBursts::3          273                       # Per bank write bursts (Count)
system.mem_ctrls.dram.perBankRdBursts::4          389                       # Per bank write bursts (Count)
system.mem_ctrls.dram.perBankRdBursts::5          511                       # Per bank write bursts (Count)
system.mem_ctrls.dram.perBankRdBursts::6          468                       # Per bank write bursts (Count)
system.mem_ctrls.dram.perBankRdBursts::7          427                       # Per bank write bursts (Count)
system.mem_ctrls.dram.perBankRdBursts::8          518                       # Per bank write bursts (Count)
system.mem_ctrls.dram.perBankRdBursts::9          441                       # Per bank write bursts (Count)
system.mem_ctrls.dram.perBankRdBursts::10          419                       # Per bank write bursts (Count)
system.mem_ctrls.dram.perBankRdBursts::11          491                       # Per bank write bursts (Count)
system.mem_ctrls.dram.perBankRdBursts::12          467                       # Per bank write bursts (Count)
system.mem_ctrls.dram.perBankRdBursts::13          576                       # Per bank write bursts (Count)
system.mem_ctrls.dram.perBankRdBursts::14          522                       # Per bank write bursts (Count)
system.mem_ctrls.dram.perBankRdBursts::15          657                       # Per bank write bursts (Count)
system.mem_ctrls.dram.perBankWrBursts::0          362                       # Per bank write bursts (Count)
system.mem_ctrls.dram.perBankWrBursts::1          395                       # Per bank write bursts (Count)
system.mem_ctrls.dram.perBankWrBursts::2          319                       # Per bank write bursts (Count)
system.mem_ctrls.dram.perBankWrBursts::3          227                       # Per bank write bursts (Count)
system.mem_ctrls.dram.perBankWrBursts::4          296                       # Per bank write bursts (Count)
system.mem_ctrls.dram.perBankWrBursts::5          476                       # Per bank write bursts (Count)
system.mem_ctrls.dram.perBankWrBursts::6          402                       # Per bank write bursts (Count)
system.mem_ctrls.dram.perBankWrBursts::7          437                       # Per bank write bursts (Count)
system.mem_ctrls.dram.perBankWrBursts::8          480                       # Per bank write bursts (Count)
system.mem_ctrls.dram.perBankWrBursts::9          443                       # Per bank write bursts (Count)
system.mem_ctrls.dram.perBankWrBursts::10          377                       # Per bank write bursts (Count)
system.mem_ctrls.dram.perBankWrBursts::11          342                       # Per bank write bursts (Count)
system.mem_ctrls.dram.perBankWrBursts::12          380                       # Per bank write bursts (Count)
system.mem_ctrls.dram.perBankWrBursts::13          402                       # Per bank write bursts (Count)
system.mem_ctrls.dram.perBankWrBursts::14          385                       # Per bank write bursts (Count)
system.mem_ctrls.dram.perBankWrBursts::15          472                       # Per bank write bursts (Count)
system.mem_ctrls.dram.totQLat                87090500                       # Total ticks spent queuing (Tick)
system.mem_ctrls.dram.totBusLat              39260000                       # Total ticks spent in databus transfers (Tick)
system.mem_ctrls.dram.totMemAccLat          234315500                       # Total ticks spent from burst creation until serviced by the DRAM (Tick)
system.mem_ctrls.dram.avgQLat                11091.51                       # Average queueing delay per DRAM burst ((Tick/Count))
system.mem_ctrls.dram.avgBusLat               5000.00                       # Average bus latency per DRAM burst ((Tick/Count))
system.mem_ctrls.dram.avgMemAccLat           29841.51                       # Average memory access latency per DRAM burst ((Tick/Count))
system.mem_ctrls.dram.readRowHits                4978                       # Number of row buffer hits during reads (Count)
system.mem_ctrls.dram.writeRowHits               5273                       # Number of row buffer hits during writes (Count)
system.mem_ctrls.dram.readRowHitRate            63.40                       # Row buffer hit rate for reads (Ratio)
system.mem_ctrls.dram.writeRowHitRate           85.12                       # Row buffer hit rate for writes (Ratio)
system.mem_ctrls.dram.bytesPerActivate::samples         3789                       # Bytes accessed per row activation (Byte)
system.mem_ctrls.dram.bytesPerActivate::mean   236.946952                       # Bytes accessed per row activation (Byte)
system.mem_ctrls.dram.bytesPerActivate::gmean   167.978293                       # Bytes accessed per row activation (Byte)
system.mem_ctrls.dram.bytesPerActivate::stdev   235.477709                       # Bytes accessed per row activation (Byte)
system.mem_ctrls.dram.bytesPerActivate::0-127         1051     27.74%     27.74% # Bytes accessed per row activation (Byte)
system.mem_ctrls.dram.bytesPerActivate::128-255         1642     43.34%     71.07% # Bytes accessed per row activation (Byte)
system.mem_ctrls.dram.bytesPerActivate::256-383          530     13.99%     85.06% # Bytes accessed per row activation (Byte)
system.mem_ctrls.dram.bytesPerActivate::384-511          118      3.11%     88.18% # Bytes accessed per row activation (Byte)
system.mem_ctrls.dram.bytesPerActivate::512-639          107      2.82%     91.00% # Bytes accessed per row activation (Byte)
system.mem_ctrls.dram.bytesPerActivate::640-767           74      1.95%     92.95% # Bytes accessed per row activation (Byte)
system.mem_ctrls.dram.bytesPerActivate::768-895           63      1.66%     94.62% # Bytes accessed per row activation (Byte)
system.mem_ctrls.dram.bytesPerActivate::896-1023           38      1.00%     95.62% # Bytes accessed per row activation (Byte)
system.mem_ctrls.dram.bytesPerActivate::1024-1151          166      4.38%    100.00% # Bytes accessed per row activation (Byte)
system.mem_ctrls.dram.bytesPerActivate::total         3789                       # Bytes accessed per row activation (Byte)
system.mem_ctrls.dram.bytesRead                502528                       # Total bytes read (Byte)
system.mem_ctrls.dram.bytesWritten             396480                       # Total bytes written (Byte)
system.mem_ctrls.dram.avgRdBW               16.645483                       # Average DRAM read bandwidth in MiBytes/s ((Byte/Second))
system.mem_ctrls.dram.avgWrBW               13.132802                       # Average DRAM write bandwidth in MiBytes/s ((Byte/Second))
system.mem_ctrls.dram.peakBW                 12800.00                       # Theoretical peak bandwidth in MiByte/s ((Byte/Second))
system.mem_ctrls.dram.busUtil                    0.23                       # Data bus utilization in percentage (Ratio)
system.mem_ctrls.dram.busUtilRead                0.13                       # Data bus utilization in percentage for reads (Ratio)
system.mem_ctrls.dram.busUtilWrite               0.10                       # Data bus utilization in percentage for writes (Ratio)
system.mem_ctrls.dram.pageHitRate               72.98                       # Row buffer hit rate, read and write combined (Ratio)
system.mem_ctrls.dram.power_state.pwrStateResidencyTicks::UNDEFINED  30190053000                       # Cumulative time (in ticks) in various power states (Tick)
system.mem_ctrls.dram.rank0.actEnergy        12666360                       # Energy for activate commands per rank (pJ) (Joule)
system.mem_ctrls.dram.rank0.preEnergy         6720945                       # Energy for precharge commands per rank (pJ) (Joule)
system.mem_ctrls.dram.rank0.readEnergy       26853540                       # Energy for read commands per rank (pJ) (Joule)
system.mem_ctrls.dram.rank0.writeEnergy      15211080                       # Energy for write commands per rank (pJ) (Joule)
system.mem_ctrls.dram.rank0.refreshEnergy 2382959280.000000                       # Energy for refresh commands per rank (pJ) (Joule)
system.mem_ctrls.dram.rank0.actBackEnergy   3378775320                       # Energy for active background per rank (pJ) (Joule)
system.mem_ctrls.dram.rank0.preBackEnergy   8747696160                       # Energy for precharge background per rank (pJ) (Joule)
system.mem_ctrls.dram.rank0.actPowerDownEnergy            0                       # Energy for active power-down per rank (pJ) (Joule)
system.mem_ctrls.dram.rank0.prePowerDownEnergy            0                       # Energy for precharge power-down per rank (pJ) (Joule)
system.mem_ctrls.dram.rank0.selfRefreshEnergy            0                       # Energy for self refresh per rank (pJ) (Joule)
system.mem_ctrls.dram.rank0.totalEnergy   14570882685                       # Total energy per rank (pJ) (Joule)
system.mem_ctrls.dram.rank0.averagePower   482.638526                       # Core power per rank (mW) (Watt)
system.mem_ctrls.dram.rank0.totalIdleTime            0                       # Total Idle time Per DRAM Rank (Tick)
system.mem_ctrls.dram.rank0.pwrStateTime::IDLE  22710477500                       # Time in different power states (Tick)
system.mem_ctrls.dram.rank0.pwrStateTime::REF   1008020000                       # Time in different power states (Tick)
system.mem_ctrls.dram.rank0.pwrStateTime::SREF            0                       # Time in different power states (Tick)
system.mem_ctrls.dram.rank0.pwrStateTime::PRE_PDN            0                       # Time in different power states (Tick)
system.mem_ctrls.dram.rank0.pwrStateTime::ACT   6471555500                       # Time in different power states (Tick)
system.mem_ctrls.dram.rank0.pwrStateTime::ACT_PDN            0                       # Time in different power states (Tick)
system.mem_ctrls.dram.rank1.actEnergy        14437080                       # Energy for activate commands per rank (pJ) (Joule)
system.mem_ctrls.dram.rank1.preEnergy         7658310                       # Energy for precharge commands per rank (pJ) (Joule)
system.mem_ctrls.dram.rank1.readEnergy       29209740                       # Energy for read commands per rank (pJ) (Joule)
system.mem_ctrls.dram.rank1.writeEnergy      17126820                       # Energy for write commands per rank (pJ) (Joule)
system.mem_ctrls.dram.rank1.refreshEnergy 2382959280.000000                       # Energy for refresh commands per rank (pJ) (Joule)
system.mem_ctrls.dram.rank1.actBackEnergy   3373461210                       # Energy for active background per rank (pJ) (Joule)
system.mem_ctrls.dram.rank1.preBackEnergy   8752171200                       # Energy for precharge background per rank (pJ) (Joule)
system.mem_ctrls.dram.rank1.actPowerDownEnergy            0                       # Energy for active power-down per rank (pJ) (Joule)
system.mem_ctrls.dram.rank1.prePowerDownEnergy            0                       # Energy for precharge power-down per rank (pJ) (Joule)
system.mem_ctrls.dram.rank1.selfRefreshEnergy            0                       # Energy for self refresh per rank (pJ) (Joule)
system.mem_ctrls.dram.rank1.totalEnergy   14577023640                       # Total energy per rank (pJ) (Joule)
system.mem_ctrls.dram.rank1.averagePower   482.841936                       # Core power per rank (mW) (Watt)
system.mem_ctrls.dram.rank1.totalIdleTime            0                       # Total Idle time Per DRAM Rank (Tick)
system.mem_ctrls.dram.rank1.pwrStateTime::IDLE  22721806750                       # Time in different power states (Tick)
system.mem_ctrls.dram.rank1.pwrStateTime::REF   1008020000                       # Time in different power states (Tick)
system.mem_ctrls.dram.rank1.pwrStateTime::SREF            0                       # Time in different power states (Tick)
system.mem_ctrls.dram.rank1.pwrStateTime::PRE_PDN            0                       # Time in different power states (Tick)
system.mem_ctrls.dram.rank1.pwrStateTime::ACT   6460226250                       # Time in different power states (Tick)
system.mem_ctrls.dram.rank1.pwrStateTime::ACT_PDN            0                       # Time in different power states (Tick)
system.mem_ctrls.power_state.pwrStateResidencyTicks::UNDEFINED  30190053000                       # Cumulative time (in ticks) in various power states (Tick)
system.membus.transDist::ReadResp               84395                       # Transaction distribution (Count)
system.membus.transDist::WritebackDirty          5559                       # Transaction distribution (Count)
system.membus.transDist::WritebackClean         78426                       # Transaction distribution (Count)
system.membus.transDist::CleanEvict               707                       # Transaction distribution (Count)
system.membus.transDist::ReadExReq               1293                       # Transaction distribution (Count)
system.membus.transDist::ReadExResp              1293                       # Transaction distribution (Count)
system.membus.transDist::ReadCleanReq           78915                       # Transaction distribution (Count)
system.membus.transDist::ReadSharedReq           5481                       # Transaction distribution (Count)
system.membus.transDist::InvalidateReq           1540                       # Transaction distribution (Count)
system.membus.pktCount_system.cpu.icache.mem_side_port::system.mem_ctrls.port       236255                       # Packet count per connected requestor and responder (Count)
system.membus.pktCount_system.cpu.dcache.mem_side_port::system.mem_ctrls.port        21354                       # Packet count per connected requestor and responder (Count)
system.membus.pktCount::total                  257609                       # Packet count per connected requestor and responder (Count)
system.membus.pktSize_system.cpu.icache.mem_side_port::system.mem_ctrls.port     10069760                       # Cumulative packet size per connected requestor and responder (Byte)
system.membus.pktSize_system.cpu.dcache.mem_side_port::system.mem_ctrls.port       789312                       # Cumulative packet size per connected requestor and responder (Byte)
system.membus.pktSize::total                 10859072                       # Cumulative packet size per connected requestor and responder (Byte)
system.membus.snoops                                0                       # Total snoops (Count)
system.membus.snoopTraffic                          0                       # Total snoop traffic (Byte)
system.membus.snoopFanout::samples              87229                       # Request fanout histogram (Count)
system.membus.snoopFanout::mean              0.000034                       # Request fanout histogram (Count)
system.membus.snoopFanout::stdev             0.005864                       # Request fanout histogram (Count)
system.membus.snoopFanout::underflows               0      0.00%      0.00% # Request fanout histogram (Count)
system.membus.snoopFanout::0                    87226    100.00%    100.00% # Request fanout histogram (Count)
system.membus.snoopFanout::1                        3      0.00%    100.00% # Request fanout histogram (Count)
system.membus.snoopFanout::2                        0      0.00%    100.00% # Request fanout histogram (Count)
system.membus.snoopFanout::overflows                0      0.00%    100.00% # Request fanout histogram (Count)
system.membus.snoopFanout::min_value                0                       # Request fanout histogram (Count)
system.membus.snoopFanout::max_value                1                       # Request fanout histogram (Count)
system.membus.snoopFanout::total                87229                       # Request fanout histogram (Count)
system.membus.power_state.pwrStateResidencyTicks::UNDEFINED  30190053000                       # Cumulative time (in ticks) in various power states (Tick)
system.membus.reqLayer0.occupancy           524953500                       # Layer occupancy (ticks) (Tick)
system.membus.reqLayer0.utilization               0.0                       # Layer utilization (Ratio)
system.membus.respLayer1.occupancy          394923500                       # Layer occupancy (ticks) (Tick)
system.membus.respLayer1.utilization              0.0                       # Layer utilization (Ratio)
system.membus.respLayer2.occupancy           36246000                       # Layer occupancy (ticks) (Tick)
system.membus.respLayer2.utilization              0.0                       # Layer utilization (Ratio)
system.membus.snoop_filter.totRequests         171921                       # Total number of requests made to the snoop filter. (Count)
system.membus.snoop_filter.hitSingleRequests        84693                       # Number of requests hitting in the snoop filter with a single holder of the requested data. (Count)
system.membus.snoop_filter.hitMultiRequests            2                       # Number of requests hitting in the snoop filter with multiple (>1) holders of the requested data. (Count)
system.membus.snoop_filter.totSnoops                0                       # Total number of snoops made to the snoop filter. (Count)
system.membus.snoop_filter.hitSingleSnoops            0                       # Number of snoops hitting in the snoop filter with a single holder of the requested data. (Count)
system.membus.snoop_filter.hitMultiSnoops            0                       # Number of snoops hitting in the snoop filter with multiple (>1) holders of the requested data. (Count)
system.voltage_domain.voltage                       1                       # Voltage in Volts (Volt)
system.workload.inst.arm                            0                       # number of arm instructions executed (Count)
system.workload.inst.quiesce                        0                       # number of quiesce instructions executed (Count)
system.cpu.idleCycles                         3561350                       # Total number of cycles that the object has spent stopped (Unspecified)
system.cpu.tickCycles                        56818756                       # Number of cycles that the object actually ticked (Unspecified)

---------- End Simulation Statistics   ----------
