
---------- Begin Simulation Statistics ----------
simSeconds                                   0.011805                       # Number of seconds simulated (Second)
simTicks                                  11804524500                       # Number of ticks simulated (Tick)
finalTick                                 11804524500                       # Number of ticks from beginning of simulation (restored from checkpoints and never reset) (Tick)
simFreq                                  1000000000000                       # The number of ticks per simulated second ((Tick/Second))
hostSeconds                                     66.50                       # Real time elapsed on the host (Second)
hostTickRate                                177514147                       # The number of ticks simulated per host second (ticks/s) ((Tick/Second))
hostMemory                                     672456                       # Number of bytes of host memory used (Byte)
simInsts                                     46326279                       # Number of instructions simulated (Count)
simOps                                       50666649                       # Number of ops (including micro ops) simulated (Count)
hostInstRate                                   696645                       # Simulator instruction rate (inst/s) ((Count/Second))
hostOpRate                                     761915                       # Simulator op (including micro ops) rate (op/s) ((Count/Second))
system.clk_domain.clock                          1000                       # Clock period in ticks (Tick)
system.cpu.numCycles                         23609051                       # Number of cpu cycles simulated (Cycle)
system.cpu.numWorkItemsStarted                      0                       # Number of work items this cpu started (Count)
system.cpu.numWorkItemsCompleted                    0                       # Number of work items this cpu completed (Count)
system.cpu.instsAdded                        53655147                       # Number of instructions added to the IQ (excludes non-spec) (Count)
system.cpu.nonSpecInstsAdded                     4204                       # Number of non-speculative instructions added to the IQ (Count)
system.cpu.instsIssued                       53375646                       # Number of instructions issued (Count)
system.cpu.squashedInstsIssued                  25437                       # Number of squashed instructions issued (Count)
system.cpu.squashedInstsExamined              2992701                       # Number of squashed instructions iterated over during squash; mainly for profiling (Count)
system.cpu.squashedOperandsExamined           2150850                       # Number of squashed operands that are examined and possibly removed from graph (Count)
system.cpu.squashedNonSpecRemoved                  33                       # Number of squashed non-spec instructions that were removed (Count)
system.cpu.numIssuedDist::samples            23164114                       # Number of insts issued each cycle (Count)
system.cpu.numIssuedDist::mean               2.304239                       # Number of insts issued each cycle (Count)
system.cpu.numIssuedDist::stdev              2.086573                       # Number of insts issued each cycle (Count)
system.cpu.numIssuedDist::underflows                0      0.00%      0.00% # Number of insts issued each cycle (Count)
system.cpu.numIssuedDist::0                   6612438     28.55%     28.55% # Number of insts issued each cycle (Count)
system.cpu.numIssuedDist::1                   3280051     14.16%     42.71% # Number of insts issued each cycle (Count)
system.cpu.numIssuedDist::2                   3465598     14.96%     57.67% # Number of insts issued each cycle (Count)
system.cpu.numIssuedDist::3                   3016664     13.02%     70.69% # Number of insts issued each cycle (Count)
system.cpu.numIssuedDist::4                   2684987     11.59%     82.28% # Number of insts issued each cycle (Count)
system.cpu.numIssuedDist::5                   2262938      9.77%     92.05% # Number of insts issued each cycle (Count)
system.cpu.numIssuedDist::6                   1120093      4.84%     96.89% # Number of insts issued each cycle (Count)
system.cpu.numIssuedDist::7                    431549      1.86%     98.75% # Number of insts issued each cycle (Count)
system.cpu.numIssuedDist::8                    289796      1.25%    100.00% # Number of insts issued each cycle (Count)
system.cpu.numIssuedDist::overflows                 0      0.00%    100.00% # Number of insts issued each cycle (Count)
system.cpu.numIssuedDist::min_value                 0                       # Number of insts issued each cycle (Count)
system.cpu.numIssuedDist::max_value                 8                       # Number of insts issued each cycle (Count)
system.cpu.numIssuedDist::total              23164114                       # Number of insts issued each cycle (Count)
system.cpu.statFuBusy::No_OpClass                   0      0.00%      0.00% # attempts to use FU when none available (Count)
system.cpu.statFuBusy::IntAlu                  138198     17.59%     17.59% # attempts to use FU when none available (Count)
system.cpu.statFuBusy::IntMult                  81410     10.36%     27.95% # attempts to use FU when none available (Count)
system.cpu.statFuBusy::IntDiv                       0      0.00%     27.95% # attempts to use FU when none available (Count)
system.cpu.statFuBusy::FloatAdd                     0      0.00%     27.95% # attempts to use FU when none available (Count)
system.cpu.statFuBusy::FloatCmp                     0      0.00%     27.95% # attempts to use FU when none available (Count)
system.cpu.statFuBusy::FloatCvt                     0      0.00%     27.95% # attempts to use FU when none available (Count)
system.cpu.statFuBusy::FloatMult                    0      0.00%     27.95% # attempts to use FU when none available (Count)
system.cpu.statFuBusy::FloatMultAcc                 0      0.00%     27.95% # attempts to use FU when none available (Count)
system.cpu.statFuBusy::FloatDiv                     0      0.00%     27.95% # attempts to use FU when none available (Count)
system.cpu.statFuBusy::FloatMisc                    0      0.00%     27.95% # attempts to use FU when none available (Count)
system.cpu.statFuBusy::FloatSqrt                    0      0.00%     27.95% # attempts to use FU when none available (Count)
system.cpu.statFuBusy::SimdAdd                      0      0.00%     27.95% # attempts to use FU when none available (Count)
system.cpu.statFuBusy::SimdAddAcc                   0      0.00%     27.95% # attempts to use FU when none available (Count)
system.cpu.statFuBusy::SimdAlu                      3      0.00%     27.95% # attempts to use FU when none available (Count)
system.cpu.statFuBusy::SimdCmp                   4103      0.52%     28.48% # attempts to use FU when none available (Count)
system.cpu.statFuBusy::SimdCvt                      0      0.00%     28.48% # attempts to use FU when none available (Count)
system.cpu.statFuBusy::SimdMisc                     0      0.00%     28.48% # attempts to use FU when none available (Count)
system.cpu.statFuBusy::SimdMult                     0      0.00%     28.48% # attempts to use FU when none available (Count)
system.cpu.statFuBusy::SimdMultAcc                  0      0.00%     28.48% # attempts to use FU when none available (Count)
system.cpu.statFuBusy::SimdShift                    0      0.00%     28.48% # attempts to use FU when none available (Count)
system.cpu.statFuBusy::SimdShiftAcc                 0      0.00%     28.48% # attempts to use FU when none available (Count)
system.cpu.statFuBusy::SimdDiv                      0      0.00%     28.48% # attempts to use FU when none available (Count)
system.cpu.statFuBusy::SimdSqrt                     0      0.00%     28.48% # attempts to use FU when none available (Count)
system.cpu.statFuBusy::SimdFloatAdd                 0      0.00%     28.48% # attempts to use FU when none available (Count)
system.cpu.statFuBusy::SimdFloatAlu                 0      0.00%     28.48% # attempts to use FU when none available (Count)
system.cpu.statFuBusy::SimdFloatCmp                 0      0.00%     28.48% # attempts to use FU when none available (Count)
system.cpu.statFuBusy::SimdFloatCvt                 0      0.00%     28.48% # attempts to use FU when none available (Count)
system.cpu.statFuBusy::SimdFloatDiv                 0      0.00%     28.48% # attempts to use FU when none available (Count)
system.cpu.statFuBusy::SimdFloatMisc                0      0.00%     28.48% # attempts to use FU when none available (Count)
system.cpu.statFuBusy::SimdFloatMult                0      0.00%     28.48% # attempts to use FU when none available (Count)
system.cpu.statFuBusy::SimdFloatMultAcc             0      0.00%     28.48% # attempts to use FU when none available (Count)
system.cpu.statFuBusy::SimdFloatSqrt                0      0.00%     28.48% # attempts to use FU when none available (Count)
system.cpu.statFuBusy::SimdReduceAdd                0      0.00%     28.48% # attempts to use FU when none available (Count)
system.cpu.statFuBusy::SimdReduceAlu                0      0.00%     28.48% # attempts to use FU when none available (Count)
system.cpu.statFuBusy::SimdReduceCmp                0      0.00%     28.48% # attempts to use FU when none available (Count)
system.cpu.statFuBusy::SimdFloatReduceAdd            0      0.00%     28.48% # attempts to use FU when none available (Count)
system.cpu.statFuBusy::SimdFloatReduceCmp            0      0.00%     28.48% # attempts to use FU when none available (Count)
system.cpu.statFuBusy::SimdAes                      0      0.00%     28.48% # attempts to use FU when none available (Count)
system.cpu.statFuBusy::SimdAesMix                   0      0.00%     28.48% # attempts to use FU when none available (Count)
system.cpu.statFuBusy::SimdSha1Hash                 0      0.00%     28.48% # attempts to use FU when none available (Count)
system.cpu.statFuBusy::SimdSha1Hash2                0      0.00%     28.48% # attempts to use FU when none available (Count)
system.cpu.statFuBusy::SimdSha256Hash               0      0.00%     28.48% # attempts to use FU when none available (Count)
system.cpu.statFuBusy::SimdSha256Hash2              0      0.00%     28.48% # attempts to use FU when none available (Count)
system.cpu.statFuBusy::SimdShaSigma2                0      0.00%     28.48% # attempts to use FU when none available (Count)
system.cpu.statFuBusy::SimdShaSigma3                0      0.00%     28.48% # attempts to use FU when none available (Count)
system.cpu.statFuBusy::SimdPredAlu                  0      0.00%     28.48% # attempts to use FU when none available (Count)
system.cpu.statFuBusy::MemRead                 383852     48.86%     77.34% # attempts to use FU when none available (Count)
system.cpu.statFuBusy::MemWrite                178062     22.66%    100.00% # attempts to use FU when none available (Count)
system.cpu.statFuBusy::FloatMemRead                 0      0.00%    100.00% # attempts to use FU when none available (Count)
system.cpu.statFuBusy::FloatMemWrite                0      0.00%    100.00% # attempts to use FU when none available (Count)
system.cpu.statFuBusy::IprAccess                    0      0.00%    100.00% # attempts to use FU when none available (Count)
system.cpu.statFuBusy::InstPrefetch                 0      0.00%    100.00% # attempts to use FU when none available (Count)
system.cpu.statIssuedInstType_0::No_OpClass        27824      0.05%      0.05% # Number of instructions issued per FU type, per thread (Count)
system.cpu.statIssuedInstType_0::IntAlu      33944885     63.60%     63.65% # Number of instructions issued per FU type, per thread (Count)
system.cpu.statIssuedInstType_0::IntMult       641394      1.20%     64.85% # Number of instructions issued per FU type, per thread (Count)
system.cpu.statIssuedInstType_0::IntDiv        154486      0.29%     65.14% # Number of instructions issued per FU type, per thread (Count)
system.cpu.statIssuedInstType_0::FloatAdd       278541      0.52%     65.66% # Number of instructions issued per FU type, per thread (Count)
system.cpu.statIssuedInstType_0::FloatCmp        16389      0.03%     65.69% # Number of instructions issued per FU type, per thread (Count)
system.cpu.statIssuedInstType_0::FloatCvt            0      0.00%     65.69% # Number of instructions issued per FU type, per thread (Count)
system.cpu.statIssuedInstType_0::FloatMult       262157      0.49%     66.18% # Number of instructions issued per FU type, per thread (Count)
system.cpu.statIssuedInstType_0::FloatMultAcc            0      0.00%     66.18% # Number of instructions issued per FU type, per thread (Count)
system.cpu.statIssuedInstType_0::FloatDiv            0      0.00%     66.18% # Number of instructions issued per FU type, per thread (Count)
system.cpu.statIssuedInstType_0::FloatMisc        61373      0.11%     66.30% # Number of instructions issued per FU type, per thread (Count)
system.cpu.statIssuedInstType_0::FloatSqrt            0      0.00%     66.30% # Number of instructions issued per FU type, per thread (Count)
system.cpu.statIssuedInstType_0::SimdAdd        63181      0.12%     66.42% # Number of instructions issued per FU type, per thread (Count)
system.cpu.statIssuedInstType_0::SimdAddAcc            0      0.00%     66.42% # Number of instructions issued per FU type, per thread (Count)
system.cpu.statIssuedInstType_0::SimdAlu       118768      0.22%     66.64% # Number of instructions issued per FU type, per thread (Count)
system.cpu.statIssuedInstType_0::SimdCmp       111200      0.21%     66.85% # Number of instructions issued per FU type, per thread (Count)
system.cpu.statIssuedInstType_0::SimdCvt            0      0.00%     66.85% # Number of instructions issued per FU type, per thread (Count)
system.cpu.statIssuedInstType_0::SimdMisc        76350      0.14%     66.99% # Number of instructions issued per FU type, per thread (Count)
system.cpu.statIssuedInstType_0::SimdMult            0      0.00%     66.99% # Number of instructions issued per FU type, per thread (Count)
system.cpu.statIssuedInstType_0::SimdMultAcc            0      0.00%     66.99% # Number of instructions issued per FU type, per thread (Count)
system.cpu.statIssuedInstType_0::SimdShift            0      0.00%     66.99% # Number of instructions issued per FU type, per thread (Count)
system.cpu.statIssuedInstType_0::SimdShiftAcc            0      0.00%     66.99% # Number of instructions issued per FU type, per thread (Count)
system.cpu.statIssuedInstType_0::SimdDiv            0      0.00%     66.99% # Number of instructions issued per FU type, per thread (Count)
system.cpu.statIssuedInstType_0::SimdSqrt            0      0.00%     66.99% # Number of instructions issued per FU type, per thread (Count)
system.cpu.statIssuedInstType_0::SimdFloatAdd            0      0.00%     66.99% # Number of instructions issued per FU type, per thread (Count)
system.cpu.statIssuedInstType_0::SimdFloatAlu            0      0.00%     66.99% # Number of instructions issued per FU type, per thread (Count)
system.cpu.statIssuedInstType_0::SimdFloatCmp            0      0.00%     66.99% # Number of instructions issued per FU type, per thread (Count)
system.cpu.statIssuedInstType_0::SimdFloatCvt            0      0.00%     66.99% # Number of instructions issued per FU type, per thread (Count)
system.cpu.statIssuedInstType_0::SimdFloatDiv            0      0.00%     66.99% # Number of instructions issued per FU type, per thread (Count)
system.cpu.statIssuedInstType_0::SimdFloatMisc            0      0.00%     66.99% # Number of instructions issued per FU type, per thread (Count)
system.cpu.statIssuedInstType_0::SimdFloatMult            0      0.00%     66.99% # Number of instructions issued per FU type, per thread (Count)
system.cpu.statIssuedInstType_0::SimdFloatMultAcc            0      0.00%     66.99% # Number of instructions issued per FU type, per thread (Count)
system.cpu.statIssuedInstType_0::SimdFloatSqrt            0      0.00%     66.99% # Number of instructions issued per FU type, per thread (Count)
system.cpu.statIssuedInstType_0::SimdReduceAdd            0      0.00%     66.99% # Number of instructions issued per FU type, per thread (Count)
system.cpu.statIssuedInstType_0::SimdReduceAlu            0      0.00%     66.99% # Number of instructions issued per FU type, per thread (Count)
system.cpu.statIssuedInstType_0::SimdReduceCmp            0      0.00%     66.99% # Number of instructions issued per FU type, per thread (Count)
system.cpu.statIssuedInstType_0::SimdFloatReduceAdd            0      0.00%     66.99% # Number of instructions issued per FU type, per thread (Count)
system.cpu.statIssuedInstType_0::SimdFloatReduceCmp            0      0.00%     66.99% # Number of instructions issued per FU type, per thread (Count)
system.cpu.statIssuedInstType_0::SimdAes            0      0.00%     66.99% # Number of instructions issued per FU type, per thread (Count)
system.cpu.statIssuedInstType_0::SimdAesMix            0      0.00%     66.99% # Number of instructions issued per FU type, per thread (Count)
system.cpu.statIssuedInstType_0::SimdSha1Hash            0      0.00%     66.99% # Number of instructions issued per FU type, per thread (Count)
system.cpu.statIssuedInstType_0::SimdSha1Hash2            0      0.00%     66.99% # Number of instructions issued per FU type, per thread (Count)
system.cpu.statIssuedInstType_0::SimdSha256Hash            0      0.00%     66.99% # Number of instructions issued per FU type, per thread (Count)
system.cpu.statIssuedInstType_0::SimdSha256Hash2            0      0.00%     66.99% # Number of instructions issued per FU type, per thread (Count)
system.cpu.statIssuedInstType_0::SimdShaSigma2            0      0.00%     66.99% # Number of instructions issued per FU type, per thread (Count)
system.cpu.statIssuedInstType_0::SimdShaSigma3            0      0.00%     66.99% # Number of instructions issued per FU type, per thread (Count)
system.cpu.statIssuedInstType_0::SimdPredAlu            0      0.00%     66.99% # Number of instructions issued per FU type, per thread (Count)
system.cpu.statIssuedInstType_0::MemRead     12072297     22.62%     89.61% # Number of instructions issued per FU type, per thread (Count)
system.cpu.statIssuedInstType_0::MemWrite      5546801     10.39%    100.00% # Number of instructions issued per FU type, per thread (Count)
system.cpu.statIssuedInstType_0::FloatMemRead            0      0.00%    100.00% # Number of instructions issued per FU type, per thread (Count)
system.cpu.statIssuedInstType_0::FloatMemWrite            0      0.00%    100.00% # Number of instructions issued per FU type, per thread (Count)
system.cpu.statIssuedInstType_0::IprAccess            0      0.00%    100.00% # Number of instructions issued per FU type, per thread (Count)
system.cpu.statIssuedInstType_0::InstPrefetch            0      0.00%    100.00% # Number of instructions issued per FU type, per thread (Count)
system.cpu.statIssuedInstType_0::total       53375646                       # Number of instructions issued per FU type, per thread (Count)
system.cpu.issueRate                         2.260813                       # Inst issue rate ((Count/Cycle))
system.cpu.fuBusy                              785628                       # FU busy when requested (Count)
system.cpu.fuBusyRate                        0.014719                       # FU busy rate (busy events/executed inst) ((Count/Count))
system.cpu.intInstQueueReads                124972907                       # Number of integer instruction queue reads (Count)
system.cpu.intInstQueueWrites                53736483                       # Number of integer instruction queue writes (Count)
system.cpu.intInstQueueWakeupAccesses        49529846                       # Number of integer instruction queue wakeup accesses (Count)
system.cpu.fpInstQueueReads                         0                       # Number of floating instruction queue reads (Count)
system.cpu.fpInstQueueWrites                        0                       # Number of floating instruction queue writes (Count)
system.cpu.fpInstQueueWakeupAccesses                0                       # Number of floating instruction queue wakeup accesses (Count)
system.cpu.vecInstQueueReads                  5753564                       # Number of vector instruction queue reads (Count)
system.cpu.vecInstQueueWrites                 2916537                       # Number of vector instruction queue writes (Count)
system.cpu.vecInstQueueWakeupAccesses         2860385                       # Number of vector instruction queue wakeup accesses (Count)
system.cpu.intAluAccesses                    51274410                       # Number of integer alu accesses (Count)
system.cpu.fpAluAccesses                            0                       # Number of floating point alu accesses (Count)
system.cpu.vecAluAccesses                     2859040                       # Number of vector alu accesses (Count)
system.cpu.numInsts                          53224888                       # Number of executed instructions (Count)
system.cpu.numLoadInsts                      12016206                       # Number of load instructions executed (Count)
system.cpu.numSquashedInsts                    150758                       # Number of squashed instructions skipped in execute (Count)
system.cpu.numSwp                                   0                       # Number of swp insts executed (Count)
system.cpu.numNop                               65658                       # Number of nop insts executed (Count)
system.cpu.numRefs                           17550425                       # Number of memory reference insts executed (Count)
system.cpu.numBranches                        6977294                       # Number of branches executed (Count)
system.cpu.numStoreInsts                      5534219                       # Number of stores executed (Count)
system.cpu.numRate                           2.254427                       # Inst execution rate ((Count/Cycle))
system.cpu.timesIdled                           20923                       # Number of times that the entire CPU went into an idle state and unscheduled itself (Count)
system.cpu.idleCycles                          444937                       # Total number of cycles that the CPU has spent unscheduled due to idling (Cycle)
system.cpu.committedInsts                    46326279                       # Number of Instructions Simulated (Count)
system.cpu.committedOps                      50666649                       # Number of Ops (including micro ops) Simulated (Count)
system.cpu.cpi                               0.509625                       # CPI: Cycles Per Instruction ((Cycle/Count))
system.cpu.totalCpi                          0.509625                       # CPI: Total CPI of All Threads ((Cycle/Count))
system.cpu.ipc                               1.962225                       # IPC: Instructions Per Cycle ((Count/Cycle))
system.cpu.totalIpc                          1.962225                       # IPC: Total IPC of All Threads ((Count/Cycle))
system.cpu.intRegfileReads                   63782375                       # Number of integer regfile reads (Count)
system.cpu.intRegfileWrites                  39304374                       # Number of integer regfile writes (Count)
system.cpu.vecRegfileReads                    2431451                       # number of vector regfile reads (Count)
system.cpu.vecRegfileWrites                   2173020                       # number of vector regfile writes (Count)
system.cpu.ccRegfileReads                    14906295                       # number of cc regfile reads (Count)
system.cpu.ccRegfileWrites                   14740713                       # number of cc regfile writes (Count)
system.cpu.miscRegfileReads                 100757932                       # number of misc regfile reads (Count)
system.cpu.miscRegfileWrites                   561209                       # number of misc regfile writes (Count)
system.cpu.MemDepUnit__0.insertedLoads       11479289                       # Number of loads inserted to the mem dependence unit. (Count)
system.cpu.MemDepUnit__0.insertedStores       5622868                       # Number of stores inserted to the mem dependence unit. (Count)
system.cpu.MemDepUnit__0.conflictingLoads      2702249                       # Number of conflicting loads. (Count)
system.cpu.MemDepUnit__0.conflictingStores       801537                       # Number of conflicting stores. (Count)
system.cpu.MemDepUnit__1.insertedLoads              0                       # Number of loads inserted to the mem dependence unit. (Count)
system.cpu.MemDepUnit__1.insertedStores             0                       # Number of stores inserted to the mem dependence unit. (Count)
system.cpu.MemDepUnit__1.conflictingLoads            0                       # Number of conflicting loads. (Count)
system.cpu.MemDepUnit__1.conflictingStores            0                       # Number of conflicting stores. (Count)
system.cpu.MemDepUnit__2.insertedLoads              0                       # Number of loads inserted to the mem dependence unit. (Count)
system.cpu.MemDepUnit__2.insertedStores             0                       # Number of stores inserted to the mem dependence unit. (Count)
system.cpu.MemDepUnit__2.conflictingLoads            0                       # Number of conflicting loads. (Count)
system.cpu.MemDepUnit__2.conflictingStores            0                       # Number of conflicting stores. (Count)
system.cpu.MemDepUnit__3.insertedLoads              0                       # Number of loads inserted to the mem dependence unit. (Count)
system.cpu.MemDepUnit__3.insertedStores             0                       # Number of stores inserted to the mem dependence unit. (Count)
system.cpu.MemDepUnit__3.conflictingLoads            0                       # Number of conflicting loads. (Count)
system.cpu.MemDepUnit__3.conflictingStores            0                       # Number of conflicting stores. (Count)
system.cpu.branchPred.lookups                 7501644                       # Number of BP lookups (Count)
system.cpu.branchPred.condPredicted           5677247                       # Number of conditional branches predicted (Count)
system.cpu.branchPred.condIncorrect            105873                       # Number of conditional branches incorrect (Count)
system.cpu.branchPred.BTBLookups              4238215                       # Number of BTB lookups (Count)
system.cpu.branchPred.BTBHits                 4215104                       # Number of BTB hits (Count)
system.cpu.branchPred.BTBHitRatio            0.994547                       # BTB Hit Ratio (Ratio)
system.cpu.branchPred.RASUsed                  569388                       # Number of times the RAS was used to get a target. (Count)
system.cpu.branchPred.RASIncorrect                  4                       # Number of incorrect RAS predictions. (Count)
system.cpu.branchPred.indirectLookups           76658                       # Number of indirect predictor lookups. (Count)
system.cpu.branchPred.indirectHits              75401                       # Number of indirect target hits. (Count)
system.cpu.branchPred.indirectMisses             1257                       # Number of indirect misses. (Count)
system.cpu.branchPred.indirectMispredicted           99                       # Number of mispredicted indirect branches. (Count)
system.cpu.commit.commitSquashedInsts         2998014                       # The number of squashed insts skipped by commit (Count)
system.cpu.commit.commitNonSpecStalls            4171                       # The number of times commit has been forced to stall to communicate backwards (Count)
system.cpu.commit.branchMispredicts             92901                       # The number of times a branch was mispredicted (Count)
system.cpu.commit.numCommittedDist::samples     22737906                       # Number of insts commited each cycle (Count)
system.cpu.commit.numCommittedDist::mean     2.230927                       # Number of insts commited each cycle (Count)
system.cpu.commit.numCommittedDist::stdev     2.947398                       # Number of insts commited each cycle (Count)
system.cpu.commit.numCommittedDist::underflows            0      0.00%      0.00% # Number of insts commited each cycle (Count)
system.cpu.commit.numCommittedDist::0         9684984     42.59%     42.59% # Number of insts commited each cycle (Count)
system.cpu.commit.numCommittedDist::1         4430640     19.49%     62.08% # Number of insts commited each cycle (Count)
system.cpu.commit.numCommittedDist::2         2015940      8.87%     70.95% # Number of insts commited each cycle (Count)
system.cpu.commit.numCommittedDist::3         1251356      5.50%     76.45% # Number of insts commited each cycle (Count)
system.cpu.commit.numCommittedDist::4          460975      2.03%     78.48% # Number of insts commited each cycle (Count)
system.cpu.commit.numCommittedDist::5          529599      2.33%     80.81% # Number of insts commited each cycle (Count)
system.cpu.commit.numCommittedDist::6          228996      1.01%     81.81% # Number of insts commited each cycle (Count)
system.cpu.commit.numCommittedDist::7          439176      1.93%     83.74% # Number of insts commited each cycle (Count)
system.cpu.commit.numCommittedDist::8         3696240     16.26%    100.00% # Number of insts commited each cycle (Count)
system.cpu.commit.numCommittedDist::overflows            0      0.00%    100.00% # Number of insts commited each cycle (Count)
system.cpu.commit.numCommittedDist::min_value            0                       # Number of insts commited each cycle (Count)
system.cpu.commit.numCommittedDist::max_value            8                       # Number of insts commited each cycle (Count)
system.cpu.commit.numCommittedDist::total     22737906                       # Number of insts commited each cycle (Count)
system.cpu.commit.instsCommitted             46386241                       # Number of instructions committed (Count)
system.cpu.commit.opsCommitted               50726611                       # Number of ops (including micro ops) committed (Count)
system.cpu.commit.memRefs                    16302297                       # Number of memory references committed (Count)
system.cpu.commit.loads                      11006940                       # Number of loads committed (Count)
system.cpu.commit.amos                             20                       # Number of atomic instructions committed (Count)
system.cpu.commit.membars                          24                       # Number of memory barriers committed (Count)
system.cpu.commit.branches                    6723046                       # Number of branches committed (Count)
system.cpu.commit.vectorInstructions          2842563                       # Number of committed Vector instructions. (Count)
system.cpu.commit.floating                          0                       # Number of committed floating point instructions. (Count)
system.cpu.commit.integer                    45425700                       # Number of committed integer instructions. (Count)
system.cpu.commit.functionCalls                508101                       # Number of function calls committed. (Count)
system.cpu.commit.committedInstType_0::No_OpClass        27678      0.05%      0.05% # Class of committed instruction (Count)
system.cpu.commit.committedInstType_0::IntAlu     32627942     64.32%     64.38% # Class of committed instruction (Count)
system.cpu.commit.committedInstType_0::IntMult       641224      1.26%     65.64% # Class of committed instruction (Count)
system.cpu.commit.committedInstType_0::IntDiv       153813      0.30%     65.94% # Class of committed instruction (Count)
system.cpu.commit.committedInstType_0::FloatAdd       278528      0.55%     66.49% # Class of committed instruction (Count)
system.cpu.commit.committedInstType_0::FloatCmp        16384      0.03%     66.52% # Class of committed instruction (Count)
system.cpu.commit.committedInstType_0::FloatCvt            0      0.00%     66.52% # Class of committed instruction (Count)
system.cpu.commit.committedInstType_0::FloatMult       262144      0.52%     67.04% # Class of committed instruction (Count)
system.cpu.commit.committedInstType_0::FloatMultAcc            0      0.00%     67.04% # Class of committed instruction (Count)
system.cpu.commit.committedInstType_0::FloatDiv            0      0.00%     67.04% # Class of committed instruction (Count)
system.cpu.commit.committedInstType_0::FloatMisc        49152      0.10%     67.14% # Class of committed instruction (Count)
system.cpu.commit.committedInstType_0::FloatSqrt            0      0.00%     67.14% # Class of committed instruction (Count)
system.cpu.commit.committedInstType_0::SimdAdd        62740      0.12%     67.26% # Class of committed instruction (Count)
system.cpu.commit.committedInstType_0::SimdAddAcc            0      0.00%     67.26% # Class of committed instruction (Count)
system.cpu.commit.committedInstType_0::SimdAlu       118039      0.23%     67.49% # Class of committed instruction (Count)
system.cpu.commit.committedInstType_0::SimdCmp       110616      0.22%     67.71% # Class of committed instruction (Count)
system.cpu.commit.committedInstType_0::SimdCvt            0      0.00%     67.71% # Class of committed instruction (Count)
system.cpu.commit.committedInstType_0::SimdMisc        76054      0.15%     67.86% # Class of committed instruction (Count)
system.cpu.commit.committedInstType_0::SimdMult            0      0.00%     67.86% # Class of committed instruction (Count)
system.cpu.commit.committedInstType_0::SimdMultAcc            0      0.00%     67.86% # Class of committed instruction (Count)
system.cpu.commit.committedInstType_0::SimdShift            0      0.00%     67.86% # Class of committed instruction (Count)
system.cpu.commit.committedInstType_0::SimdShiftAcc            0      0.00%     67.86% # Class of committed instruction (Count)
system.cpu.commit.committedInstType_0::SimdDiv            0      0.00%     67.86% # Class of committed instruction (Count)
system.cpu.commit.committedInstType_0::SimdSqrt            0      0.00%     67.86% # Class of committed instruction (Count)
system.cpu.commit.committedInstType_0::SimdFloatAdd            0      0.00%     67.86% # Class of committed instruction (Count)
system.cpu.commit.committedInstType_0::SimdFloatAlu            0      0.00%     67.86% # Class of committed instruction (Count)
system.cpu.commit.committedInstType_0::SimdFloatCmp            0      0.00%     67.86% # Class of committed instruction (Count)
system.cpu.commit.committedInstType_0::SimdFloatCvt            0      0.00%     67.86% # Class of committed instruction (Count)
system.cpu.commit.committedInstType_0::SimdFloatDiv            0      0.00%     67.86% # Class of committed instruction (Count)
system.cpu.commit.committedInstType_0::SimdFloatMisc            0      0.00%     67.86% # Class of committed instruction (Count)
system.cpu.commit.committedInstType_0::SimdFloatMult            0      0.00%     67.86% # Class of committed instruction (Count)
system.cpu.commit.committedInstType_0::SimdFloatMultAcc            0      0.00%     67.86% # Class of committed instruction (Count)
system.cpu.commit.committedInstType_0::SimdFloatSqrt            0      0.00%     67.86% # Class of committed instruction (Count)
system.cpu.commit.committedInstType_0::SimdReduceAdd            0      0.00%     67.86% # Class of committed instruction (Count)
system.cpu.commit.committedInstType_0::SimdReduceAlu            0      0.00%     67.86% # Class of committed instruction (Count)
system.cpu.commit.committedInstType_0::SimdReduceCmp            0      0.00%     67.86% # Class of committed instruction (Count)
system.cpu.commit.committedInstType_0::SimdFloatReduceAdd            0      0.00%     67.86% # Class of committed instruction (Count)
system.cpu.commit.committedInstType_0::SimdFloatReduceCmp            0      0.00%     67.86% # Class of committed instruction (Count)
system.cpu.commit.committedInstType_0::SimdAes            0      0.00%     67.86% # Class of committed instruction (Count)
system.cpu.commit.committedInstType_0::SimdAesMix            0      0.00%     67.86% # Class of committed instruction (Count)
system.cpu.commit.committedInstType_0::SimdSha1Hash            0      0.00%     67.86% # Class of committed instruction (Count)
system.cpu.commit.committedInstType_0::SimdSha1Hash2            0      0.00%     67.86% # Class of committed instruction (Count)
system.cpu.commit.committedInstType_0::SimdSha256Hash            0      0.00%     67.86% # Class of committed instruction (Count)
system.cpu.commit.committedInstType_0::SimdSha256Hash2            0      0.00%     67.86% # Class of committed instruction (Count)
system.cpu.commit.committedInstType_0::SimdShaSigma2            0      0.00%     67.86% # Class of committed instruction (Count)
system.cpu.commit.committedInstType_0::SimdShaSigma3            0      0.00%     67.86% # Class of committed instruction (Count)
system.cpu.commit.committedInstType_0::SimdPredAlu            0      0.00%     67.86% # Class of committed instruction (Count)
system.cpu.commit.committedInstType_0::MemRead     11006940     21.70%     89.56% # Class of committed instruction (Count)
system.cpu.commit.committedInstType_0::MemWrite      5295357     10.44%    100.00% # Class of committed instruction (Count)
system.cpu.commit.committedInstType_0::FloatMemRead            0      0.00%    100.00% # Class of committed instruction (Count)
system.cpu.commit.committedInstType_0::FloatMemWrite            0      0.00%    100.00% # Class of committed instruction (Count)
system.cpu.commit.committedInstType_0::IprAccess            0      0.00%    100.00% # Class of committed instruction (Count)
system.cpu.commit.committedInstType_0::InstPrefetch            0      0.00%    100.00% # Class of committed instruction (Count)
system.cpu.commit.committedInstType_0::total     50726611                       # Class of committed instruction (Count)
system.cpu.commit.commitEligibleSamples       3696240                       # number cycles where commit BW limit reached (Cycle)
system.cpu.dcache.demandHits::cpu.data       13936452                       # number of demand (read+write) hits (Count)
system.cpu.dcache.demandHits::total          13936452                       # number of demand (read+write) hits (Count)
system.cpu.dcache.overallHits::cpu.data      13962190                       # number of overall hits (Count)
system.cpu.dcache.overallHits::total         13962190                       # number of overall hits (Count)
system.cpu.dcache.demandMisses::cpu.data        52115                       # number of demand (read+write) misses (Count)
system.cpu.dcache.demandMisses::total           52115                       # number of demand (read+write) misses (Count)
system.cpu.dcache.overallMisses::cpu.data        56248                       # number of overall misses (Count)
system.cpu.dcache.overallMisses::total          56248                       # number of overall misses (Count)
system.cpu.dcache.demandMissLatency::cpu.data   2919482297                       # number of demand (read+write) miss ticks (Tick)
system.cpu.dcache.demandMissLatency::total   2919482297                       # number of demand (read+write) miss ticks (Tick)
system.cpu.dcache.overallMissLatency::cpu.data   2919482297                       # number of overall miss ticks (Tick)
system.cpu.dcache.overallMissLatency::total   2919482297                       # number of overall miss ticks (Tick)
system.cpu.dcache.demandAccesses::cpu.data     13988567                       # number of demand (read+write) accesses (Count)
system.cpu.dcache.demandAccesses::total      13988567                       # number of demand (read+write) accesses (Count)
system.cpu.dcache.overallAccesses::cpu.data     14018438                       # number of overall (read+write) accesses (Count)
system.cpu.dcache.overallAccesses::total     14018438                       # number of overall (read+write) accesses (Count)
system.cpu.dcache.demandMissRate::cpu.data     0.003726                       # miss rate for demand accesses (Ratio)
system.cpu.dcache.demandMissRate::total      0.003726                       # miss rate for demand accesses (Ratio)
system.cpu.dcache.overallMissRate::cpu.data     0.004012                       # miss rate for overall accesses (Ratio)
system.cpu.dcache.overallMissRate::total     0.004012                       # miss rate for overall accesses (Ratio)
system.cpu.dcache.demandAvgMissLatency::cpu.data 56019.999942                       # average overall miss latency ((Cycle/Count))
system.cpu.dcache.demandAvgMissLatency::total 56019.999942                       # average overall miss latency ((Cycle/Count))
system.cpu.dcache.overallAvgMissLatency::cpu.data 51903.752969                       # average overall miss latency ((Cycle/Count))
system.cpu.dcache.overallAvgMissLatency::total 51903.752969                       # average overall miss latency ((Cycle/Count))
system.cpu.dcache.blockedCycles::no_mshrs        12522                       # number of cycles access was blocked (Cycle)
system.cpu.dcache.blockedCycles::no_targets            0                       # number of cycles access was blocked (Cycle)
system.cpu.dcache.blockedCauses::no_mshrs         1327                       # number of times access was blocked (Count)
system.cpu.dcache.blockedCauses::no_targets            0                       # number of times access was blocked (Count)
system.cpu.dcache.avgBlocked::no_mshrs       9.436323                       # average number of cycles each access was blocked ((Cycle/Count))
system.cpu.dcache.avgBlocked::no_targets          nan                       # average number of cycles each access was blocked ((Cycle/Count))
system.cpu.dcache.writebacks::writebacks        12448                       # number of writebacks (Count)
system.cpu.dcache.writebacks::total             12448                       # number of writebacks (Count)
system.cpu.dcache.demandMshrHits::cpu.data        26099                       # number of demand (read+write) MSHR hits (Count)
system.cpu.dcache.demandMshrHits::total         26099                       # number of demand (read+write) MSHR hits (Count)
system.cpu.dcache.overallMshrHits::cpu.data        26099                       # number of overall MSHR hits (Count)
system.cpu.dcache.overallMshrHits::total        26099                       # number of overall MSHR hits (Count)
system.cpu.dcache.demandMshrMisses::cpu.data        26016                       # number of demand (read+write) MSHR misses (Count)
system.cpu.dcache.demandMshrMisses::total        26016                       # number of demand (read+write) MSHR misses (Count)
system.cpu.dcache.overallMshrMisses::cpu.data        30149                       # number of overall MSHR misses (Count)
system.cpu.dcache.overallMshrMisses::total        30149                       # number of overall MSHR misses (Count)
system.cpu.dcache.demandMshrMissLatency::cpu.data   1433481833                       # number of demand (read+write) MSHR miss ticks (Tick)
system.cpu.dcache.demandMshrMissLatency::total   1433481833                       # number of demand (read+write) MSHR miss ticks (Tick)
system.cpu.dcache.overallMshrMissLatency::cpu.data   1669453833                       # number of overall MSHR miss ticks (Tick)
system.cpu.dcache.overallMshrMissLatency::total   1669453833                       # number of overall MSHR miss ticks (Tick)
system.cpu.dcache.demandMshrMissRate::cpu.data     0.001860                       # mshr miss ratio for demand accesses (Ratio)
system.cpu.dcache.demandMshrMissRate::total     0.001860                       # mshr miss ratio for demand accesses (Ratio)
system.cpu.dcache.overallMshrMissRate::cpu.data     0.002151                       # mshr miss ratio for overall accesses (Ratio)
system.cpu.dcache.overallMshrMissRate::total     0.002151                       # mshr miss ratio for overall accesses (Ratio)
system.cpu.dcache.demandAvgMshrMissLatency::cpu.data 55100.008956                       # average overall mshr miss latency ((Cycle/Count))
system.cpu.dcache.demandAvgMshrMissLatency::total 55100.008956                       # average overall mshr miss latency ((Cycle/Count))
system.cpu.dcache.overallAvgMshrMissLatency::cpu.data 55373.439683                       # average overall mshr miss latency ((Cycle/Count))
system.cpu.dcache.overallAvgMshrMissLatency::total 55373.439683                       # average overall mshr miss latency ((Cycle/Count))
system.cpu.dcache.replacements                  29638                       # number of replacements (Count)
system.cpu.dcache.LoadLockedReq.hits::cpu.data            5                       # number of LoadLockedReq hits (Count)
system.cpu.dcache.LoadLockedReq.hits::total            5                       # number of LoadLockedReq hits (Count)
system.cpu.dcache.LoadLockedReq.accesses::cpu.data            5                       # number of LoadLockedReq accesses(hits+misses) (Count)
system.cpu.dcache.LoadLockedReq.accesses::total            5                       # number of LoadLockedReq accesses(hits+misses) (Count)
system.cpu.dcache.ReadReq.hits::cpu.data      8645436                       # number of ReadReq hits (Count)
system.cpu.dcache.ReadReq.hits::total         8645436                       # number of ReadReq hits (Count)
system.cpu.dcache.ReadReq.misses::cpu.data        47796                       # number of ReadReq misses (Count)
system.cpu.dcache.ReadReq.misses::total         47796                       # number of ReadReq misses (Count)
system.cpu.dcache.ReadReq.missLatency::cpu.data   2746113500                       # number of ReadReq miss ticks (Tick)
system.cpu.dcache.ReadReq.missLatency::total   2746113500                       # number of ReadReq miss ticks (Tick)
system.cpu.dcache.ReadReq.accesses::cpu.data      8693232                       # number of ReadReq accesses(hits+misses) (Count)
system.cpu.dcache.ReadReq.accesses::total      8693232                       # number of ReadReq accesses(hits+misses) (Count)
system.cpu.dcache.ReadReq.missRate::cpu.data     0.005498                       # miss rate for ReadReq accesses (Ratio)
system.cpu.dcache.ReadReq.missRate::total     0.005498                       # miss rate for ReadReq accesses (Ratio)
system.cpu.dcache.ReadReq.avgMissLatency::cpu.data 57454.881162                       # average ReadReq miss latency ((Tick/Count))
system.cpu.dcache.ReadReq.avgMissLatency::total 57454.881162                       # average ReadReq miss latency ((Tick/Count))
system.cpu.dcache.ReadReq.mshrHits::cpu.data        25107                       # number of ReadReq MSHR hits (Count)
system.cpu.dcache.ReadReq.mshrHits::total        25107                       # number of ReadReq MSHR hits (Count)
system.cpu.dcache.ReadReq.mshrMisses::cpu.data        22689                       # number of ReadReq MSHR misses (Count)
system.cpu.dcache.ReadReq.mshrMisses::total        22689                       # number of ReadReq MSHR misses (Count)
system.cpu.dcache.ReadReq.mshrMissLatency::cpu.data   1301491000                       # number of ReadReq MSHR miss ticks (Tick)
system.cpu.dcache.ReadReq.mshrMissLatency::total   1301491000                       # number of ReadReq MSHR miss ticks (Tick)
system.cpu.dcache.ReadReq.mshrMissRate::cpu.data     0.002610                       # mshr miss rate for ReadReq accesses (Ratio)
system.cpu.dcache.ReadReq.mshrMissRate::total     0.002610                       # mshr miss rate for ReadReq accesses (Ratio)
system.cpu.dcache.ReadReq.avgMshrMissLatency::cpu.data 57362.201948                       # average ReadReq mshr miss latency ((Tick/Count))
system.cpu.dcache.ReadReq.avgMshrMissLatency::total 57362.201948                       # average ReadReq mshr miss latency ((Tick/Count))
system.cpu.dcache.SoftPFReq.hits::cpu.data        25738                       # number of SoftPFReq hits (Count)
system.cpu.dcache.SoftPFReq.hits::total         25738                       # number of SoftPFReq hits (Count)
system.cpu.dcache.SoftPFReq.misses::cpu.data         4133                       # number of SoftPFReq misses (Count)
system.cpu.dcache.SoftPFReq.misses::total         4133                       # number of SoftPFReq misses (Count)
system.cpu.dcache.SoftPFReq.accesses::cpu.data        29871                       # number of SoftPFReq accesses(hits+misses) (Count)
system.cpu.dcache.SoftPFReq.accesses::total        29871                       # number of SoftPFReq accesses(hits+misses) (Count)
system.cpu.dcache.SoftPFReq.missRate::cpu.data     0.138362                       # miss rate for SoftPFReq accesses (Ratio)
system.cpu.dcache.SoftPFReq.missRate::total     0.138362                       # miss rate for SoftPFReq accesses (Ratio)
system.cpu.dcache.SoftPFReq.mshrMisses::cpu.data         4133                       # number of SoftPFReq MSHR misses (Count)
system.cpu.dcache.SoftPFReq.mshrMisses::total         4133                       # number of SoftPFReq MSHR misses (Count)
system.cpu.dcache.SoftPFReq.mshrMissLatency::cpu.data    235972000                       # number of SoftPFReq MSHR miss ticks (Tick)
system.cpu.dcache.SoftPFReq.mshrMissLatency::total    235972000                       # number of SoftPFReq MSHR miss ticks (Tick)
system.cpu.dcache.SoftPFReq.mshrMissRate::cpu.data     0.138362                       # mshr miss rate for SoftPFReq accesses (Ratio)
system.cpu.dcache.SoftPFReq.mshrMissRate::total     0.138362                       # mshr miss rate for SoftPFReq accesses (Ratio)
system.cpu.dcache.SoftPFReq.avgMshrMissLatency::cpu.data 57094.604404                       # average SoftPFReq mshr miss latency ((Tick/Count))
system.cpu.dcache.SoftPFReq.avgMshrMissLatency::total 57094.604404                       # average SoftPFReq mshr miss latency ((Tick/Count))
system.cpu.dcache.StoreCondReq.hits::cpu.data            4                       # number of StoreCondReq hits (Count)
system.cpu.dcache.StoreCondReq.hits::total            4                       # number of StoreCondReq hits (Count)
system.cpu.dcache.StoreCondReq.accesses::cpu.data            4                       # number of StoreCondReq accesses(hits+misses) (Count)
system.cpu.dcache.StoreCondReq.accesses::total            4                       # number of StoreCondReq accesses(hits+misses) (Count)
system.cpu.dcache.SwapReq.hits::cpu.data           19                       # number of SwapReq hits (Count)
system.cpu.dcache.SwapReq.hits::total              19                       # number of SwapReq hits (Count)
system.cpu.dcache.SwapReq.misses::cpu.data            1                       # number of SwapReq misses (Count)
system.cpu.dcache.SwapReq.misses::total             1                       # number of SwapReq misses (Count)
system.cpu.dcache.SwapReq.missLatency::cpu.data        79000                       # number of SwapReq miss ticks (Tick)
system.cpu.dcache.SwapReq.missLatency::total        79000                       # number of SwapReq miss ticks (Tick)
system.cpu.dcache.SwapReq.accesses::cpu.data           20                       # number of SwapReq accesses(hits+misses) (Count)
system.cpu.dcache.SwapReq.accesses::total           20                       # number of SwapReq accesses(hits+misses) (Count)
system.cpu.dcache.SwapReq.missRate::cpu.data     0.050000                       # miss rate for SwapReq accesses (Ratio)
system.cpu.dcache.SwapReq.missRate::total     0.050000                       # miss rate for SwapReq accesses (Ratio)
system.cpu.dcache.SwapReq.avgMissLatency::cpu.data        79000                       # average SwapReq miss latency ((Tick/Count))
system.cpu.dcache.SwapReq.avgMissLatency::total        79000                       # average SwapReq miss latency ((Tick/Count))
system.cpu.dcache.SwapReq.mshrMisses::cpu.data            1                       # number of SwapReq MSHR misses (Count)
system.cpu.dcache.SwapReq.mshrMisses::total            1                       # number of SwapReq MSHR misses (Count)
system.cpu.dcache.SwapReq.mshrMissLatency::cpu.data        78000                       # number of SwapReq MSHR miss ticks (Tick)
system.cpu.dcache.SwapReq.mshrMissLatency::total        78000                       # number of SwapReq MSHR miss ticks (Tick)
system.cpu.dcache.SwapReq.mshrMissRate::cpu.data     0.050000                       # mshr miss rate for SwapReq accesses (Ratio)
system.cpu.dcache.SwapReq.mshrMissRate::total     0.050000                       # mshr miss rate for SwapReq accesses (Ratio)
system.cpu.dcache.SwapReq.avgMshrMissLatency::cpu.data        78000                       # average SwapReq mshr miss latency ((Tick/Count))
system.cpu.dcache.SwapReq.avgMshrMissLatency::total        78000                       # average SwapReq mshr miss latency ((Tick/Count))
system.cpu.dcache.WriteLineReq.misses::cpu.data         1540                       # number of WriteLineReq misses (Count)
system.cpu.dcache.WriteLineReq.misses::total         1540                       # number of WriteLineReq misses (Count)
system.cpu.dcache.WriteLineReq.missLatency::cpu.data     26614838                       # number of WriteLineReq miss ticks (Tick)
system.cpu.dcache.WriteLineReq.missLatency::total     26614838                       # number of WriteLineReq miss ticks (Tick)
system.cpu.dcache.WriteLineReq.accesses::cpu.data         1540                       # number of WriteLineReq accesses(hits+misses) (Count)
system.cpu.dcache.WriteLineReq.accesses::total         1540                       # number of WriteLineReq accesses(hits+misses) (Count)
system.cpu.dcache.WriteLineReq.missRate::cpu.data            1                       # miss rate for WriteLineReq accesses (Ratio)
system.cpu.dcache.WriteLineReq.missRate::total            1                       # miss rate for WriteLineReq accesses (Ratio)
system.cpu.dcache.WriteLineReq.avgMissLatency::cpu.data 17282.362338                       # average WriteLineReq miss latency ((Tick/Count))
system.cpu.dcache.WriteLineReq.avgMissLatency::total 17282.362338                       # average WriteLineReq miss latency ((Tick/Count))
system.cpu.dcache.WriteLineReq.mshrMisses::cpu.data         1540                       # number of WriteLineReq MSHR misses (Count)
system.cpu.dcache.WriteLineReq.mshrMisses::total         1540                       # number of WriteLineReq MSHR misses (Count)
system.cpu.dcache.WriteLineReq.mshrMissLatency::cpu.data     25074838                       # number of WriteLineReq MSHR miss ticks (Tick)
system.cpu.dcache.WriteLineReq.mshrMissLatency::total     25074838                       # number of WriteLineReq MSHR miss ticks (Tick)
system.cpu.dcache.WriteLineReq.mshrMissRate::cpu.data            1                       # mshr miss rate for WriteLineReq accesses (Ratio)
system.cpu.dcache.WriteLineReq.mshrMissRate::total            1                       # mshr miss rate for WriteLineReq accesses (Ratio)
system.cpu.dcache.WriteLineReq.avgMshrMissLatency::cpu.data 16282.362338                       # average WriteLineReq mshr miss latency ((Tick/Count))
system.cpu.dcache.WriteLineReq.avgMshrMissLatency::total 16282.362338                       # average WriteLineReq mshr miss latency ((Tick/Count))
system.cpu.dcache.WriteReq.hits::cpu.data      5291016                       # number of WriteReq hits (Count)
system.cpu.dcache.WriteReq.hits::total        5291016                       # number of WriteReq hits (Count)
system.cpu.dcache.WriteReq.misses::cpu.data         2779                       # number of WriteReq misses (Count)
system.cpu.dcache.WriteReq.misses::total         2779                       # number of WriteReq misses (Count)
system.cpu.dcache.WriteReq.missLatency::cpu.data    146753959                       # number of WriteReq miss ticks (Tick)
system.cpu.dcache.WriteReq.missLatency::total    146753959                       # number of WriteReq miss ticks (Tick)
system.cpu.dcache.WriteReq.accesses::cpu.data      5293795                       # number of WriteReq accesses(hits+misses) (Count)
system.cpu.dcache.WriteReq.accesses::total      5293795                       # number of WriteReq accesses(hits+misses) (Count)
system.cpu.dcache.WriteReq.missRate::cpu.data     0.000525                       # miss rate for WriteReq accesses (Ratio)
system.cpu.dcache.WriteReq.missRate::total     0.000525                       # miss rate for WriteReq accesses (Ratio)
system.cpu.dcache.WriteReq.avgMissLatency::cpu.data 52808.189637                       # average WriteReq miss latency ((Tick/Count))
system.cpu.dcache.WriteReq.avgMissLatency::total 52808.189637                       # average WriteReq miss latency ((Tick/Count))
system.cpu.dcache.WriteReq.mshrHits::cpu.data          992                       # number of WriteReq MSHR hits (Count)
system.cpu.dcache.WriteReq.mshrHits::total          992                       # number of WriteReq MSHR hits (Count)
system.cpu.dcache.WriteReq.mshrMisses::cpu.data         1787                       # number of WriteReq MSHR misses (Count)
system.cpu.dcache.WriteReq.mshrMisses::total         1787                       # number of WriteReq MSHR misses (Count)
system.cpu.dcache.WriteReq.mshrMissLatency::cpu.data    106915995                       # number of WriteReq MSHR miss ticks (Tick)
system.cpu.dcache.WriteReq.mshrMissLatency::total    106915995                       # number of WriteReq MSHR miss ticks (Tick)
system.cpu.dcache.WriteReq.mshrMissRate::cpu.data     0.000338                       # mshr miss rate for WriteReq accesses (Ratio)
system.cpu.dcache.WriteReq.mshrMissRate::total     0.000338                       # mshr miss rate for WriteReq accesses (Ratio)
system.cpu.dcache.WriteReq.avgMshrMissLatency::cpu.data 59829.879687                       # average WriteReq mshr miss latency ((Tick/Count))
system.cpu.dcache.WriteReq.avgMshrMissLatency::total 59829.879687                       # average WriteReq mshr miss latency ((Tick/Count))
system.cpu.dcache.power_state.pwrStateResidencyTicks::UNDEFINED  11804524500                       # Cumulative time (in ticks) in various power states (Tick)
system.cpu.dcache.tags.tagsInUse           511.440856                       # Average ticks per tags in use ((Tick/Count))
system.cpu.dcache.tags.totalRefs             13992368                       # Total number of references to valid blocks. (Count)
system.cpu.dcache.tags.sampledRefs              30150                       # Sample count of references to valid blocks. (Count)
system.cpu.dcache.tags.avgRefs             464.091808                       # Average number of references to valid blocks. ((Count/Count))
system.cpu.dcache.tags.warmupTick              145000                       # The tick when the warmup percentage was hit. (Tick)
system.cpu.dcache.tags.occupancies::cpu.data   511.440856                       # Average occupied blocks per tick, per requestor ((Count/Tick))
system.cpu.dcache.tags.avgOccs::cpu.data     0.998908                       # Average percentage of cache occupancy ((Ratio/Tick))
system.cpu.dcache.tags.avgOccs::total        0.998908                       # Average percentage of cache occupancy ((Ratio/Tick))
system.cpu.dcache.tags.occupanciesTaskId::1024          512                       # Occupied blocks per task id (Count)
system.cpu.dcache.tags.ageTaskId_1024::0          100                       # Occupied blocks per task id, per block age (Count)
system.cpu.dcache.tags.ageTaskId_1024::1          412                       # Occupied blocks per task id, per block age (Count)
system.cpu.dcache.tags.ratioOccsTaskId::1024            1                       # Ratio of occupied blocks and all blocks, per task id (Ratio)
system.cpu.dcache.tags.tagAccesses           28067084                       # Number of tag accesses (Count)
system.cpu.dcache.tags.dataAccesses          28067084                       # Number of data accesses (Count)
system.cpu.dcache.tags.power_state.pwrStateResidencyTicks::UNDEFINED  11804524500                       # Cumulative time (in ticks) in various power states (Tick)
system.cpu.decode.idleCycles                  5466193                       # Number of cycles decode is idle (Cycle)
system.cpu.decode.blockedCycles               8263883                       # Number of cycles decode is blocked (Cycle)
system.cpu.decode.runCycles                   7537851                       # Number of cycles decode is running (Cycle)
system.cpu.decode.unblockCycles               1798361                       # Number of cycles decode is unblocking (Cycle)
system.cpu.decode.squashCycles                  97826                       # Number of cycles decode is squashing (Cycle)
system.cpu.decode.branchResolved              4157919                       # Number of times decode resolved a branch (Count)
system.cpu.decode.branchMispred                 12993                       # Number of times decode detected a branch misprediction (Count)
system.cpu.decode.decodedInsts               54590501                       # Number of instructions handled by decode (Count)
system.cpu.decode.squashedInsts                 30349                       # Number of squashed instructions handled by decode (Count)
system.cpu.fetch.icacheStallCycles            7213434                       # Number of cycles fetch is stalled on an Icache miss (Cycle)
system.cpu.fetch.insts                       50749424                       # Number of instructions fetch has processed (Count)
system.cpu.fetch.branches                     7501644                       # Number of branches that fetch encountered (Count)
system.cpu.fetch.predictedBranches            4859893                       # Number of branches that fetch has predicted taken (Count)
system.cpu.fetch.cycles                      15839811                       # Number of cycles fetch has run and was not squashing or blocked (Cycle)
system.cpu.fetch.squashCycles                  221596                       # Number of cycles fetch has spent squashing (Cycle)
system.cpu.fetch.miscStallCycles                   58                       # Number of cycles fetch has spent waiting on interrupts, or bad addresses, or out of MSHRs (Cycle)
system.cpu.fetch.icacheWaitRetryStallCycles           13                       # Number of stall cycles due to full MSHR (Cycle)
system.cpu.fetch.cacheLines                   6413696                       # Number of cache lines fetched (Count)
system.cpu.fetch.icacheSquashes                 47943                       # Number of outstanding Icache misses that were squashed (Count)
system.cpu.fetch.nisnDist::samples           23164114                       # Number of instructions fetched each cycle (Total) (Count)
system.cpu.fetch.nisnDist::mean              2.404914                       # Number of instructions fetched each cycle (Total) (Count)
system.cpu.fetch.nisnDist::stdev             3.100698                       # Number of instructions fetched each cycle (Total) (Count)
system.cpu.fetch.nisnDist::underflows               0      0.00%      0.00% # Number of instructions fetched each cycle (Total) (Count)
system.cpu.fetch.nisnDist::0                 12195553     52.65%     52.65% # Number of instructions fetched each cycle (Total) (Count)
system.cpu.fetch.nisnDist::1                  1144600      4.94%     57.59% # Number of instructions fetched each cycle (Total) (Count)
system.cpu.fetch.nisnDist::2                  1457440      6.29%     63.88% # Number of instructions fetched each cycle (Total) (Count)
system.cpu.fetch.nisnDist::3                  1096896      4.74%     68.62% # Number of instructions fetched each cycle (Total) (Count)
system.cpu.fetch.nisnDist::4                  1210676      5.23%     73.84% # Number of instructions fetched each cycle (Total) (Count)
system.cpu.fetch.nisnDist::5                   903398      3.90%     77.74% # Number of instructions fetched each cycle (Total) (Count)
system.cpu.fetch.nisnDist::6                   810313      3.50%     81.24% # Number of instructions fetched each cycle (Total) (Count)
system.cpu.fetch.nisnDist::7                   625935      2.70%     83.94% # Number of instructions fetched each cycle (Total) (Count)
system.cpu.fetch.nisnDist::8                  3719303     16.06%    100.00% # Number of instructions fetched each cycle (Total) (Count)
system.cpu.fetch.nisnDist::overflows                0      0.00%    100.00% # Number of instructions fetched each cycle (Total) (Count)
system.cpu.fetch.nisnDist::min_value                0                       # Number of instructions fetched each cycle (Total) (Count)
system.cpu.fetch.nisnDist::max_value                8                       # Number of instructions fetched each cycle (Total) (Count)
system.cpu.fetch.nisnDist::total             23164114                       # Number of instructions fetched each cycle (Total) (Count)
system.cpu.fetch.branchRate                  0.317744                       # Number of branch fetches per cycle (Ratio)
system.cpu.fetch.rate                        2.149575                       # Number of inst fetches per cycle ((Count/Cycle))
system.cpu.icache.demandHits::cpu.inst        6387762                       # number of demand (read+write) hits (Count)
system.cpu.icache.demandHits::total           6387762                       # number of demand (read+write) hits (Count)
system.cpu.icache.overallHits::cpu.inst       6387762                       # number of overall hits (Count)
system.cpu.icache.overallHits::total          6387762                       # number of overall hits (Count)
system.cpu.icache.demandMisses::cpu.inst        25933                       # number of demand (read+write) misses (Count)
system.cpu.icache.demandMisses::total           25933                       # number of demand (read+write) misses (Count)
system.cpu.icache.overallMisses::cpu.inst        25933                       # number of overall misses (Count)
system.cpu.icache.overallMisses::total          25933                       # number of overall misses (Count)
system.cpu.icache.demandMissLatency::cpu.inst    664473999                       # number of demand (read+write) miss ticks (Tick)
system.cpu.icache.demandMissLatency::total    664473999                       # number of demand (read+write) miss ticks (Tick)
system.cpu.icache.overallMissLatency::cpu.inst    664473999                       # number of overall miss ticks (Tick)
system.cpu.icache.overallMissLatency::total    664473999                       # number of overall miss ticks (Tick)
system.cpu.icache.demandAccesses::cpu.inst      6413695                       # number of demand (read+write) accesses (Count)
system.cpu.icache.demandAccesses::total       6413695                       # number of demand (read+write) accesses (Count)
system.cpu.icache.overallAccesses::cpu.inst      6413695                       # number of overall (read+write) accesses (Count)
system.cpu.icache.overallAccesses::total      6413695                       # number of overall (read+write) accesses (Count)
system.cpu.icache.demandMissRate::cpu.inst     0.004043                       # miss rate for demand accesses (Ratio)
system.cpu.icache.demandMissRate::total      0.004043                       # miss rate for demand accesses (Ratio)
system.cpu.icache.overallMissRate::cpu.inst     0.004043                       # miss rate for overall accesses (Ratio)
system.cpu.icache.overallMissRate::total     0.004043                       # miss rate for overall accesses (Ratio)
system.cpu.icache.demandAvgMissLatency::cpu.inst 25622.720048                       # average overall miss latency ((Cycle/Count))
system.cpu.icache.demandAvgMissLatency::total 25622.720048                       # average overall miss latency ((Cycle/Count))
system.cpu.icache.overallAvgMissLatency::cpu.inst 25622.720048                       # average overall miss latency ((Cycle/Count))
system.cpu.icache.overallAvgMissLatency::total 25622.720048                       # average overall miss latency ((Cycle/Count))
system.cpu.icache.blockedCycles::no_mshrs          660                       # number of cycles access was blocked (Cycle)
system.cpu.icache.blockedCycles::no_targets            0                       # number of cycles access was blocked (Cycle)
system.cpu.icache.blockedCauses::no_mshrs            9                       # number of times access was blocked (Count)
system.cpu.icache.blockedCauses::no_targets            0                       # number of times access was blocked (Count)
system.cpu.icache.avgBlocked::no_mshrs      73.333333                       # average number of cycles each access was blocked ((Cycle/Count))
system.cpu.icache.avgBlocked::no_targets          nan                       # average number of cycles each access was blocked ((Cycle/Count))
system.cpu.icache.writebacks::writebacks        25044                       # number of writebacks (Count)
system.cpu.icache.writebacks::total             25044                       # number of writebacks (Count)
system.cpu.icache.demandMshrHits::cpu.inst          412                       # number of demand (read+write) MSHR hits (Count)
system.cpu.icache.demandMshrHits::total           412                       # number of demand (read+write) MSHR hits (Count)
system.cpu.icache.overallMshrHits::cpu.inst          412                       # number of overall MSHR hits (Count)
system.cpu.icache.overallMshrHits::total          412                       # number of overall MSHR hits (Count)
system.cpu.icache.demandMshrMisses::cpu.inst        25521                       # number of demand (read+write) MSHR misses (Count)
system.cpu.icache.demandMshrMisses::total        25521                       # number of demand (read+write) MSHR misses (Count)
system.cpu.icache.overallMshrMisses::cpu.inst        25521                       # number of overall MSHR misses (Count)
system.cpu.icache.overallMshrMisses::total        25521                       # number of overall MSHR misses (Count)
system.cpu.icache.demandMshrMissLatency::cpu.inst    624672999                       # number of demand (read+write) MSHR miss ticks (Tick)
system.cpu.icache.demandMshrMissLatency::total    624672999                       # number of demand (read+write) MSHR miss ticks (Tick)
system.cpu.icache.overallMshrMissLatency::cpu.inst    624672999                       # number of overall MSHR miss ticks (Tick)
system.cpu.icache.overallMshrMissLatency::total    624672999                       # number of overall MSHR miss ticks (Tick)
system.cpu.icache.demandMshrMissRate::cpu.inst     0.003979                       # mshr miss ratio for demand accesses (Ratio)
system.cpu.icache.demandMshrMissRate::total     0.003979                       # mshr miss ratio for demand accesses (Ratio)
system.cpu.icache.overallMshrMissRate::cpu.inst     0.003979                       # mshr miss ratio for overall accesses (Ratio)
system.cpu.icache.overallMshrMissRate::total     0.003979                       # mshr miss ratio for overall accesses (Ratio)
system.cpu.icache.demandAvgMshrMissLatency::cpu.inst 24476.822969                       # average overall mshr miss latency ((Cycle/Count))
system.cpu.icache.demandAvgMshrMissLatency::total 24476.822969                       # average overall mshr miss latency ((Cycle/Count))
system.cpu.icache.overallAvgMshrMissLatency::cpu.inst 24476.822969                       # average overall mshr miss latency ((Cycle/Count))
system.cpu.icache.overallAvgMshrMissLatency::total 24476.822969                       # average overall mshr miss latency ((Cycle/Count))
system.cpu.icache.replacements                  25044                       # number of replacements (Count)
system.cpu.icache.ReadReq.hits::cpu.inst      6387762                       # number of ReadReq hits (Count)
system.cpu.icache.ReadReq.hits::total         6387762                       # number of ReadReq hits (Count)
system.cpu.icache.ReadReq.misses::cpu.inst        25933                       # number of ReadReq misses (Count)
system.cpu.icache.ReadReq.misses::total         25933                       # number of ReadReq misses (Count)
system.cpu.icache.ReadReq.missLatency::cpu.inst    664473999                       # number of ReadReq miss ticks (Tick)
system.cpu.icache.ReadReq.missLatency::total    664473999                       # number of ReadReq miss ticks (Tick)
system.cpu.icache.ReadReq.accesses::cpu.inst      6413695                       # number of ReadReq accesses(hits+misses) (Count)
system.cpu.icache.ReadReq.accesses::total      6413695                       # number of ReadReq accesses(hits+misses) (Count)
system.cpu.icache.ReadReq.missRate::cpu.inst     0.004043                       # miss rate for ReadReq accesses (Ratio)
system.cpu.icache.ReadReq.missRate::total     0.004043                       # miss rate for ReadReq accesses (Ratio)
system.cpu.icache.ReadReq.avgMissLatency::cpu.inst 25622.720048                       # average ReadReq miss latency ((Tick/Count))
system.cpu.icache.ReadReq.avgMissLatency::total 25622.720048                       # average ReadReq miss latency ((Tick/Count))
system.cpu.icache.ReadReq.mshrHits::cpu.inst          412                       # number of ReadReq MSHR hits (Count)
system.cpu.icache.ReadReq.mshrHits::total          412                       # number of ReadReq MSHR hits (Count)
system.cpu.icache.ReadReq.mshrMisses::cpu.inst        25521                       # number of ReadReq MSHR misses (Count)
system.cpu.icache.ReadReq.mshrMisses::total        25521                       # number of ReadReq MSHR misses (Count)
system.cpu.icache.ReadReq.mshrMissLatency::cpu.inst    624672999                       # number of ReadReq MSHR miss ticks (Tick)
system.cpu.icache.ReadReq.mshrMissLatency::total    624672999                       # number of ReadReq MSHR miss ticks (Tick)
system.cpu.icache.ReadReq.mshrMissRate::cpu.inst     0.003979                       # mshr miss rate for ReadReq accesses (Ratio)
system.cpu.icache.ReadReq.mshrMissRate::total     0.003979                       # mshr miss rate for ReadReq accesses (Ratio)
system.cpu.icache.ReadReq.avgMshrMissLatency::cpu.inst 24476.822969                       # average ReadReq mshr miss latency ((Tick/Count))
system.cpu.icache.ReadReq.avgMshrMissLatency::total 24476.822969                       # average ReadReq mshr miss latency ((Tick/Count))
system.cpu.icache.power_state.pwrStateResidencyTicks::UNDEFINED  11804524500                       # Cumulative time (in ticks) in various power states (Tick)
system.cpu.icache.tags.tagsInUse           407.230955                       # Average ticks per tags in use ((Tick/Count))
system.cpu.icache.tags.totalRefs              6413282                       # Total number of references to valid blocks. (Count)
system.cpu.icache.tags.sampledRefs              25520                       # Sample count of references to valid blocks. (Count)
system.cpu.icache.tags.avgRefs             251.304154                       # Average number of references to valid blocks. ((Count/Count))
system.cpu.icache.tags.warmupTick               77000                       # The tick when the warmup percentage was hit. (Tick)
system.cpu.icache.tags.occupancies::cpu.inst   407.230955                       # Average occupied blocks per tick, per requestor ((Count/Tick))
system.cpu.icache.tags.avgOccs::cpu.inst     0.795373                       # Average percentage of cache occupancy ((Ratio/Tick))
system.cpu.icache.tags.avgOccs::total        0.795373                       # Average percentage of cache occupancy ((Ratio/Tick))
system.cpu.icache.tags.occupanciesTaskId::1024          476                       # Occupied blocks per task id (Count)
system.cpu.icache.tags.ageTaskId_1024::0          127                       # Occupied blocks per task id, per block age (Count)
system.cpu.icache.tags.ageTaskId_1024::1           27                       # Occupied blocks per task id, per block age (Count)
system.cpu.icache.tags.ageTaskId_1024::2            1                       # Occupied blocks per task id, per block age (Count)
system.cpu.icache.tags.ageTaskId_1024::3          177                       # Occupied blocks per task id, per block age (Count)
system.cpu.icache.tags.ageTaskId_1024::4          144                       # Occupied blocks per task id, per block age (Count)
system.cpu.icache.tags.ratioOccsTaskId::1024     0.929688                       # Ratio of occupied blocks and all blocks, per task id (Ratio)
system.cpu.icache.tags.tagAccesses           12852910                       # Number of tag accesses (Count)
system.cpu.icache.tags.dataAccesses          12852910                       # Number of data accesses (Count)
system.cpu.icache.tags.power_state.pwrStateResidencyTicks::UNDEFINED  11804524500                       # Cumulative time (in ticks) in various power states (Tick)
system.cpu.iew.idleCycles                           0                       # Number of cycles IEW is idle (Cycle)
system.cpu.iew.squashCycles                     97826                       # Number of cycles IEW is squashing (Cycle)
system.cpu.iew.blockCycles                     710852                       # Number of cycles IEW is blocking (Cycle)
system.cpu.iew.unblockCycles                   528474                       # Number of cycles IEW is unblocking (Cycle)
system.cpu.iew.dispatchedInsts               53725009                       # Number of instructions dispatched to IQ (Count)
system.cpu.iew.dispSquashedInsts                14289                       # Number of squashed instructions skipped by dispatch (Count)
system.cpu.iew.dispLoadInsts                 11479289                       # Number of dispatched load instructions (Count)
system.cpu.iew.dispStoreInsts                 5622868                       # Number of dispatched store instructions (Count)
system.cpu.iew.dispNonSpecInsts                  4204                       # Number of dispatched non-speculative instructions (Count)
system.cpu.iew.iqFullEvents                     52481                       # Number of times the IQ has become full, causing a stall (Count)
system.cpu.iew.lsqFullEvents                   462607                       # Number of times the LSQ has become full, causing a stall (Count)
system.cpu.iew.memOrderViolationEvents            973                       # Number of memory order violations (Count)
system.cpu.iew.predictedTakenIncorrect          38479                       # Number of branches that were predicted taken incorrectly (Count)
system.cpu.iew.predictedNotTakenIncorrect        55752                       # Number of branches that were predicted not taken incorrectly (Count)
system.cpu.iew.branchMispredicts                94231                       # Number of branch mispredicts detected at execute (Count)
system.cpu.iew.instsToCommit                 52412992                       # Cumulative count of insts sent to commit (Count)
system.cpu.iew.writebackCount                52390231                       # Cumulative count of insts written-back (Count)
[...]
system.mem_ctrls.dram.bwRead::cpu.inst      138360507                       # Total read bandwidth from this memory ((Byte/Second))
system.mem_ctrls.dram.bwRead::cpu.data      154994130                       # Total read bandwidth from this memory ((Byte/Second))
system.mem_ctrls.dram.bwRead::total         293354637                       # Total read bandwidth from this memory ((Byte/Second))
system.mem_ctrls.dram.bwInstRead::cpu.inst    138360507                       # Instruction read bandwidth from this memory ((Byte/Second))
system.mem_ctrls.dram.bwInstRead::total     138360507                       # Instruction read bandwidth from this memory ((Byte/Second))
system.mem_ctrls.dram.bwWrite::writebacks     67488699                       # Write bandwidth from this memory ((Byte/Second))
system.mem_ctrls.dram.bwWrite::total         67488699                       # Write bandwidth from this memory ((Byte/Second))
system.mem_ctrls.dram.bwTotal::writebacks     67488699                       # Total bandwidth to/from this memory ((Byte/Second))
system.mem_ctrls.dram.bwTotal::cpu.inst     138360507                       # Total bandwidth to/from this memory ((Byte/Second))
system.mem_ctrls.dram.bwTotal::cpu.data     154994130                       # Total bandwidth to/from this memory ((Byte/Second))
system.mem_ctrls.dram.bwTotal::total        360843336                       # Total bandwidth to/from this memory ((Byte/Second))
system.mem_ctrls.dram.readBursts                28525                       # Number of DRAM read bursts (Count)
system.mem_ctrls.dram.writeBursts               12743                       # Number of DRAM write bursts (Count)
system.mem_ctrls.dram.perBankRdBursts::0         1273                       # Per bank write bursts (Count)
system.mem_ctrls.dram.perBankRdBursts::1          892                       # Per bank write bursts (Count)
system.mem_ctrls.dram.perBankRdBursts::2          701                       # Per bank write bursts (Count)
system.mem_ctrls.dram.perBankRdBursts::3         4491                       # Per bank write bursts (Count)
system.mem_ctrls.dram.perBankRdBursts::4         1380                       # Per bank write bursts (Count)
system.mem_ctrls.dram.perBankRdBursts::5         1390                       # Per bank write bursts (Count)
system.mem_ctrls.dram.perBankRdBursts::6         1848                       # Per bank write bursts (Count)
system.mem_ctrls.dram.perBankRdBursts::7         1290                       # Per bank write bursts (Count)
system.mem_ctrls.dram.perBankRdBursts::8         1649                       # Per bank write bursts (Count)
system.mem_ctrls.dram.perBankRdBursts::9          977                       # Per bank write bursts (Count)
system.mem_ctrls.dram.perBankRdBursts::10          809                       # Per bank write bursts (Count)
system.mem_ctrls.dram.perBankRdBursts::11          904                       # Per bank write bursts (Count)
system.mem_ctrls.dram.perBankRdBursts::12         1249                       # Per bank write bursts (Count)
system.mem_ctrls.dram.perBankRdBursts::13         5920                       # Per bank write bursts (Count)
system.mem_ctrls.dram.perBankRdBursts::14         1907                       # Per bank write bursts (Count)
system.mem_ctrls.dram.perBankRdBursts::15         1845                       # Per bank write bursts (Count)
system.mem_ctrls.dram.perBankWrBursts::0         1059                       # Per bank write bursts (Count)
system.mem_ctrls.dram.perBankWrBursts::1          507                       # Per bank write bursts (Count)
system.mem_ctrls.dram.perBankWrBursts::2          463                       # Per bank write bursts (Count)
system.mem_ctrls.dram.perBankWrBursts::3          224                       # Per bank write bursts (Count)
system.mem_ctrls.dram.perBankWrBursts::4          555                       # Per bank write bursts (Count)
system.mem_ctrls.dram.perBankWrBursts::5          580                       # Per bank write bursts (Count)
system.mem_ctrls.dram.perBankWrBursts::6          541                       # Per bank write bursts (Count)
system.mem_ctrls.dram.perBankWrBursts::7          516                       # Per bank write bursts (Count)
system.mem_ctrls.dram.perBankWrBursts::8          534                       # Per bank write bursts (Count)
system.mem_ctrls.dram.perBankWrBursts::9          530                       # Per bank write bursts (Count)
system.mem_ctrls.dram.perBankWrBursts::10          514                       # Per bank write bursts (Count)
system.mem_ctrls.dram.perBankWrBursts::11          562                       # Per bank write bursts (Count)
system.mem_ctrls.dram.perBankWrBursts::12          930                       # Per bank write bursts (Count)
system.mem_ctrls.dram.perBankWrBursts::13         1746                       # Per bank write bursts (Count)
system.mem_ctrls.dram.perBankWrBursts::14         1666                       # Per bank write bursts (Count)
system.mem_ctrls.dram.perBankWrBursts::15         1816                       # Per bank write bursts (Count)
system.mem_ctrls.dram.totQLat               246433000                       # Total ticks spent queuing (Tick)
system.mem_ctrls.dram.totBusLat             142625000                       # Total ticks spent in databus transfers (Tick)
system.mem_ctrls.dram.totMemAccLat          781276750                       # Total ticks spent from burst creation until serviced by the DRAM (Tick)
system.mem_ctrls.dram.avgQLat                 8639.19                       # Average queueing delay per DRAM burst ((Tick/Count))
system.mem_ctrls.dram.avgBusLat               5000.00                       # Average bus latency per DRAM burst ((Tick/Count))
system.mem_ctrls.dram.avgMemAccLat           27389.19                       # Average memory access latency per DRAM burst ((Tick/Count))
system.mem_ctrls.dram.readRowHits               23370                       # Number of row buffer hits during reads (Count)
system.mem_ctrls.dram.writeRowHits              11219                       # Number of row buffer hits during writes (Count)
system.mem_ctrls.dram.readRowHitRate            81.93                       # Row buffer hit rate for reads (Ratio)
system.mem_ctrls.dram.writeRowHitRate           88.04                       # Row buffer hit rate for writes (Ratio)
system.mem_ctrls.dram.bytesPerActivate::samples         6674                       # Bytes accessed per row activation (Byte)
system.mem_ctrls.dram.bytesPerActivate::mean   395.670363                       # Bytes accessed per row activation (Byte)
system.mem_ctrls.dram.bytesPerActivate::gmean   277.956772                       # Bytes accessed per row activation (Byte)
system.mem_ctrls.dram.bytesPerActivate::stdev   303.940953                       # Bytes accessed per row activation (Byte)
system.mem_ctrls.dram.bytesPerActivate::0-127         1303     19.52%     19.52% # Bytes accessed per row activation (Byte)
system.mem_ctrls.dram.bytesPerActivate::128-255          959     14.37%     33.89% # Bytes accessed per row activation (Byte)
system.mem_ctrls.dram.bytesPerActivate::256-383         1424     21.34%     55.23% # Bytes accessed per row activation (Byte)
system.mem_ctrls.dram.bytesPerActivate::384-511          979     14.67%     69.90% # Bytes accessed per row activation (Byte)
system.mem_ctrls.dram.bytesPerActivate::512-639          619      9.27%     79.17% # Bytes accessed per row activation (Byte)
system.mem_ctrls.dram.bytesPerActivate::640-767          261      3.91%     83.08% # Bytes accessed per row activation (Byte)
system.mem_ctrls.dram.bytesPerActivate::768-895          251      3.76%     86.84% # Bytes accessed per row activation (Byte)
system.mem_ctrls.dram.bytesPerActivate::896-1023          148      2.22%     89.06% # Bytes accessed per row activation (Byte)
system.mem_ctrls.dram.bytesPerActivate::1024-1151          730     10.94%    100.00% # Bytes accessed per row activation (Byte)
system.mem_ctrls.dram.bytesPerActivate::total         6674                       # Bytes accessed per row activation (Byte)
system.mem_ctrls.dram.bytesRead               1825600                       # Total bytes read (Byte)
system.mem_ctrls.dram.bytesWritten             815552                       # Total bytes written (Byte)
system.mem_ctrls.dram.avgRdBW              154.652566                       # Average DRAM read bandwidth in MiBytes/s ((Byte/Second))
system.mem_ctrls.dram.avgWrBW               69.088086                       # Average DRAM write bandwidth in MiBytes/s ((Byte/Second))
system.mem_ctrls.dram.peakBW                 12800.00                       # Theoretical peak bandwidth in MiByte/s ((Byte/Second))
system.mem_ctrls.dram.busUtil                    1.75                       # Data bus utilization in percentage (Ratio)
system.mem_ctrls.dram.busUtilRead                1.21                       # Data bus utilization in percentage for reads (Ratio)
system.mem_ctrls.dram.busUtilWrite               0.54                       # Data bus utilization in percentage for writes (Ratio)
system.mem_ctrls.dram.pageHitRate               83.82                       # Row buffer hit rate, read and write combined (Ratio)
system.mem_ctrls.dram.power_state.pwrStateResidencyTicks::UNDEFINED  11804524500                       # Cumulative time (in ticks) in various power states (Tick)
system.mem_ctrls.dram.rank0.actEnergy        20620320                       # Energy for activate commands per rank (pJ) (Joule)
system.mem_ctrls.dram.rank0.preEnergy        10948575                       # Energy for precharge commands per rank (pJ) (Joule)
system.mem_ctrls.dram.rank0.readEnergy       94704960                       # Energy for read commands per rank (pJ) (Joule)
system.mem_ctrls.dram.rank0.writeEnergy      23202900                       # Energy for write commands per rank (pJ) (Joule)
system.mem_ctrls.dram.rank0.refreshEnergy 931794240.000000                       # Energy for refresh commands per rank (pJ) (Joule)
system.mem_ctrls.dram.rank0.actBackEnergy   4566019200                       # Energy for active background per rank (pJ) (Joule)
system.mem_ctrls.dram.rank0.preBackEnergy    687868800                       # Energy for precharge background per rank (pJ) (Joule)
system.mem_ctrls.dram.rank0.actPowerDownEnergy            0                       # Energy for active power-down per rank (pJ) (Joule)
system.mem_ctrls.dram.rank0.prePowerDownEnergy            0                       # Energy for precharge power-down per rank (pJ) (Joule)
system.mem_ctrls.dram.rank0.selfRefreshEnergy            0                       # Energy for self refresh per rank (pJ) (Joule)
system.mem_ctrls.dram.rank0.totalEnergy    6335158995                       # Total energy per rank (pJ) (Joule)
system.mem_ctrls.dram.rank0.averagePower   536.672104                       # Core power per rank (mW) (Watt)
system.mem_ctrls.dram.rank0.totalIdleTime            0                       # Total Idle time Per DRAM Rank (Tick)
system.mem_ctrls.dram.rank0.pwrStateTime::IDLE   1748797250                       # Time in different power states (Tick)
system.mem_ctrls.dram.rank0.pwrStateTime::REF    394160000                       # Time in different power states (Tick)
system.mem_ctrls.dram.rank0.pwrStateTime::SREF            0                       # Time in different power states (Tick)
system.mem_ctrls.dram.rank0.pwrStateTime::PRE_PDN            0                       # Time in different power states (Tick)
system.mem_ctrls.dram.rank0.pwrStateTime::ACT   9661567250                       # Time in different power states (Tick)
system.mem_ctrls.dram.rank0.pwrStateTime::ACT_PDN            0                       # Time in different power states (Tick)
system.mem_ctrls.dram.rank1.actEnergy        27067740                       # Energy for activate commands per rank (pJ) (Joule)
system.mem_ctrls.dram.rank1.preEnergy        14379255                       # Energy for precharge commands per rank (pJ) (Joule)
system.mem_ctrls.dram.rank1.readEnergy      108956400                       # Energy for read commands per rank (pJ) (Joule)
system.mem_ctrls.dram.rank1.writeEnergy      43315560                       # Energy for write commands per rank (pJ) (Joule)
system.mem_ctrls.dram.rank1.refreshEnergy 931794240.000000                       # Energy for refresh commands per rank (pJ) (Joule)
system.mem_ctrls.dram.rank1.actBackEnergy   4634545740                       # Energy for active background per rank (pJ) (Joule)
system.mem_ctrls.dram.rank1.preBackEnergy    630162240                       # Energy for precharge background per rank (pJ) (Joule)
system.mem_ctrls.dram.rank1.actPowerDownEnergy            0                       # Energy for active power-down per rank (pJ) (Joule)
system.mem_ctrls.dram.rank1.prePowerDownEnergy            0                       # Energy for precharge power-down per rank (pJ) (Joule)
system.mem_ctrls.dram.rank1.selfRefreshEnergy            0                       # Energy for self refresh per rank (pJ) (Joule)
system.mem_ctrls.dram.rank1.totalEnergy    6390221175                       # Total energy per rank (pJ) (Joule)
system.mem_ctrls.dram.rank1.averagePower   541.336601                       # Core power per rank (mW) (Watt)
system.mem_ctrls.dram.rank1.totalIdleTime            0                       # Total Idle time Per DRAM Rank (Tick)
system.mem_ctrls.dram.rank1.pwrStateTime::IDLE   1594924750                       # Time in different power states (Tick)
system.mem_ctrls.dram.rank1.pwrStateTime::REF    394160000                       # Time in different power states (Tick)
system.mem_ctrls.dram.rank1.pwrStateTime::SREF            0                       # Time in different power states (Tick)
system.mem_ctrls.dram.rank1.pwrStateTime::PRE_PDN            0                       # Time in different power states (Tick)
system.mem_ctrls.dram.rank1.pwrStateTime::ACT   9815439750                       # Time in different power states (Tick)
system.mem_ctrls.dram.rank1.pwrStateTime::ACT_PDN            0                       # Time in different power states (Tick)
system.mem_ctrls.power_state.pwrStateResidencyTicks::UNDEFINED  11804524500                       # Cumulative time (in ticks) in various power states (Tick)
system.membus.transDist::ReadResp               52334                       # Transaction distribution (Count)
system.membus.transDist::WritebackDirty         12448                       # Transaction distribution (Count)
system.membus.transDist::WritebackClean         25044                       # Transaction distribution (Count)
system.membus.transDist::CleanEvict             17190                       # Transaction distribution (Count)
system.membus.transDist::ReadExReq               1774                       # Transaction distribution (Count)
system.membus.transDist::ReadExResp              1774                       # Transaction distribution (Count)
system.membus.transDist::ReadCleanReq           25521                       # Transaction distribution (Count)
system.membus.transDist::ReadSharedReq          26814                       # Transaction distribution (Count)
system.membus.transDist::InvalidateReq           1562                       # Transaction distribution (Count)
system.membus.pktCount_system.cpu.icache.mem_side_port::system.mem_ctrls.port        76085                       # Packet count per connected requestor and responder (Count)
system.membus.pktCount_system.cpu.dcache.mem_side_port::system.mem_ctrls.port        88376                       # Packet count per connected requestor and responder (Count)
system.membus.pktCount::total                  164461                       # Packet count per connected requestor and responder (Count)
system.membus.pktSize_system.cpu.icache.mem_side_port::system.mem_ctrls.port      3236096                       # Cumulative packet size per connected requestor and responder (Byte)
system.membus.pktSize_system.cpu.dcache.mem_side_port::system.mem_ctrls.port      2626304                       # Cumulative packet size per connected requestor and responder (Byte)
system.membus.pktSize::total                  5862400                       # Cumulative packet size per connected requestor and responder (Byte)
system.membus.snoops                                0                       # Total snoops (Count)
system.membus.snoopTraffic                          0                       # Total snoop traffic (Byte)
system.membus.snoopFanout::samples              55671                       # Request fanout histogram (Count)
system.membus.snoopFanout::mean              0.000054                       # Request fanout histogram (Count)
system.membus.snoopFanout::stdev             0.007341                       # Request fanout histogram (Count)
system.membus.snoopFanout::underflows               0      0.00%      0.00% # Request fanout histogram (Count)
system.membus.snoopFanout::0                    55668     99.99%     99.99% # Request fanout histogram (Count)
system.membus.snoopFanout::1                        3      0.01%    100.00% # Request fanout histogram (Count)
system.membus.snoopFanout::2                        0      0.00%    100.00% # Request fanout histogram (Count)
system.membus.snoopFanout::overflows                0      0.00%    100.00% # Request fanout histogram (Count)
system.membus.snoopFanout::min_value                0                       # Request fanout histogram (Count)
system.membus.snoopFanout::max_value                1                       # Request fanout histogram (Count)
system.membus.snoopFanout::total                55671                       # Request fanout histogram (Count)
system.membus.power_state.pwrStateResidencyTicks::UNDEFINED  11804524500                       # Cumulative time (in ticks) in various power states (Tick)
system.membus.reqLayer0.occupancy           272811000                       # Layer occupancy (ticks) (Tick)
system.membus.reqLayer0.utilization               0.0                       # Layer utilization (Ratio)
system.membus.respLayer1.occupancy          127900750                       # Layer occupancy (ticks) (Tick)
system.membus.respLayer1.utilization              0.0                       # Layer utilization (Ratio)
system.membus.respLayer2.occupancy          151470000                       # Layer occupancy (ticks) (Tick)
system.membus.respLayer2.utilization              0.0                       # Layer utilization (Ratio)
system.membus.snoop_filter.totRequests         110353                       # Total number of requests made to the snoop filter. (Count)
system.membus.snoop_filter.hitSingleRequests        54683                       # Number of requests hitting in the snoop filter with a single holder of the requested data. (Count)
system.membus.snoop_filter.hitMultiRequests            2                       # Number of requests hitting in the snoop filter with multiple (>1) holders of the requested data. (Count)
system.membus.snoop_filter.totSnoops                0                       # Total number of snoops made to the snoop filter. (Count)
system.membus.snoop_filter.hitSingleSnoops            0                       # Number of snoops hitting in the snoop filter with a single holder of the requested data. (Count)
system.membus.snoop_filter.hitMultiSnoops            0                       # Number of snoops hitting in the snoop filter with multiple (>1) holders of the requested data. (Count)
system.voltage_domain.voltage                       1                       # Voltage in Volts (Volt)
system.workload.inst.arm                            0                       # number of arm instructions executed (Count)
system.workload.inst.quiesce                        0                       # number of quiesce instructions executed (Count)

---------- End Simulation Statistics   ----------
