
---------- Begin Simulation Statistics ----------
simSeconds                                   0.011204                       # Number of seconds simulated (Second)
simTicks                                  11204432500                       # Number of ticks simulated (Tick)
finalTick                                 11204432500                       # Number of ticks from beginning of simulation (restored from checkpoints and never reset) (Tick)
simFreq                                  1000000000000                       # The number of ticks per simulated second ((Tick/Second))
hostSeconds                                     66.99                       # Real time elapsed on the host (Second)
hostTickRate                                167247083                       # The number of ticks simulated per host second (ticks/s) ((Tick/Second))
hostMemory                                     671944                       # Number of bytes of host memory used (Byte)
simInsts                                     46326279                       # Number of instructions simulated (Count)
simOps                                       50666649                       # Number of ops (including micro ops) simulated (Count)
hostInstRate                                   691506                       # Simulator instruction rate (inst/s) ((Count/Second))
hostOpRate                                     756294                       # Simulator op (including micro ops) rate (op/s) ((Count/Second))
system.clk_domain.clock                          1000                       # Clock period in ticks (Tick)
system.cpu.numCycles                         22408867                       # Number of cpu cycles simulated (Cycle)
system.cpu.numWorkItemsStarted                      0                       # Number of work items this cpu started (Count)
system.cpu.numWorkItemsCompleted                    0                       # Number of work items this cpu completed (Count)
system.cpu.instsAdded                        53649064                       # Number of instructions added to the IQ (excludes non-spec) (Count)
system.cpu.nonSpecInstsAdded                     4206                       # Number of non-speculative instructions added to the IQ (Count)
system.cpu.instsIssued                       53356104                       # Number of instructions issued (Count)
system.cpu.squashedInstsIssued                  25410                       # Number of squashed instructions issued (Count)
system.cpu.squashedInstsExamined              2986620                       # Number of squashed instructions iterated over during squash; mainly for profiling (Count)
system.cpu.squashedOperandsExamined           2145553                       # Number of squashed operands that are examined and possibly removed from graph (Count)
system.cpu.squashedNonSpecRemoved                  35                       # Number of squashed non-spec instructions that were removed (Count)
system.cpu.numIssuedDist::samples            21952572                       # Number of insts issued each cycle (Count)
system.cpu.numIssuedDist::mean               2.430517                       # Number of insts issued each cycle (Count)
system.cpu.numIssuedDist::stdev              2.070563                       # Number of insts issued each cycle (Count)
system.cpu.numIssuedDist::underflows                0      0.00%      0.00% # Number of insts issued each cycle (Count)
system.cpu.numIssuedDist::0                   5438317     24.77%     24.77% # Number of insts issued each cycle (Count)
system.cpu.numIssuedDist::1                   3230548     14.72%     39.49% # Number of insts issued each cycle (Count)
system.cpu.numIssuedDist::2                   3521946     16.04%     55.53% # Number of insts issued each cycle (Count)
system.cpu.numIssuedDist::3                   2905887     13.24%     68.77% # Number of insts issued each cycle (Count)
system.cpu.numIssuedDist::4                   2749252     12.52%     81.29% # Number of insts issued each cycle (Count)
system.cpu.numIssuedDist::5                   2238746     10.20%     91.49% # Number of insts issued each cycle (Count)
system.cpu.numIssuedDist::6                   1186380      5.40%     96.90% # Number of insts issued each cycle (Count)
system.cpu.numIssuedDist::7                    396983      1.81%     98.70% # Number of insts issued each cycle (Count)
system.cpu.numIssuedDist::8                    284513      1.30%    100.00% # Number of insts issued each cycle (Count)
system.cpu.numIssuedDist::overflows                 0      0.00%    100.00% # Number of insts issued each cycle (Count)
system.cpu.numIssuedDist::min_value                 0                       # Number of insts issued each cycle (Count)
system.cpu.numIssuedDist::max_value                 8                       # Number of insts issued each cycle (Count)
system.cpu.numIssuedDist::total              21952572                       # Number of insts issued each cycle (Count)
system.cpu.statFuBusy::No_OpClass                   0      0.00%      0.00% # attempts to use FU when none available (Count)
system.cpu.statFuBusy::IntAlu                  134974     17.27%     17.27% # attempts to use FU when none available (Count)
system.cpu.statFuBusy::IntMult                  81415     10.42%     27.69% # attempts to use FU when none available (Count)
system.cpu.statFuBusy::IntDiv                       0      0.00%     27.69% # attempts to use FU when none available (Count)
system.cpu.statFuBusy::FloatAdd                     0      0.00%     27.69% # attempts to use FU when none available (Count)
system.cpu.statFuBusy::FloatCmp                     0      0.00%     27.69% # attempts to use FU when none available (Count)
system.cpu.statFuBusy::FloatCvt                     0      0.00%     27.69% # attempts to use FU when none available (Count)
system.cpu.statFuBusy::FloatMult                    0      0.00%     27.69% # attempts to use FU when none available (Count)
system.cpu.statFuBusy::FloatMultAcc                 0      0.00%     27.69% # attempts to use FU when none available (Count)
system.cpu.statFuBusy::FloatDiv                     0      0.00%     27.69% # attempts to use FU when none available (Count)
system.cpu.statFuBusy::FloatMisc                    0      0.00%     27.69% # attempts to use FU when none available (Count)
system.cpu.statFuBusy::FloatSqrt                    0      0.00%     27.69% # attempts to use FU when none available (Count)
system.cpu.statFuBusy::SimdAdd                      0      0.00%     27.69% # attempts to use FU when none available (Count)
system.cpu.statFuBusy::SimdAddAcc                   0      0.00%     27.69% # attempts to use FU when none available (Count)
system.cpu.statFuBusy::SimdAlu                      3      0.00%     27.69% # attempts to use FU when none available (Count)
system.cpu.statFuBusy::SimdCmp                   4099      0.52%     28.22% # attempts to use FU when none available (Count)
system.cpu.statFuBusy::SimdCvt                      0      0.00%     28.22% # attempts to use FU when none available (Count)
system.cpu.statFuBusy::SimdMisc                     0      0.00%     28.22% # attempts to use FU when none available (Count)
system.cpu.statFuBusy::SimdMult                     0      0.00%     28.22% # attempts to use FU when none available (Count)
system.cpu.statFuBusy::SimdMultAcc                  0      0.00%     28.22% # attempts to use FU when none available (Count)
system.cpu.statFuBusy::SimdShift                    0      0.00%     28.22% # attempts to use FU when none available (Count)
system.cpu.statFuBusy::SimdShiftAcc                 0      0.00%     28.22% # attempts to use FU when none available (Count)
system.cpu.statFuBusy::SimdDiv                      0      0.00%     28.22% # attempts to use FU when none available (Count)
system.cpu.statFuBusy::SimdSqrt                     0      0.00%     28.22% # attempts to use FU when none available (Count)
system.cpu.statFuBusy::SimdFloatAdd                 0      0.00%     28.22% # attempts to use FU when none available (Count)
system.cpu.statFuBusy::SimdFloatAlu                 0      0.00%     28.22% # attempts to use FU when none available (Count)
system.cpu.statFuBusy::SimdFloatCmp                 0      0.00%     28.22% # attempts to use FU when none available (Count)
system.cpu.statFuBusy::SimdFloatCvt                 0      0.00%     28.22% # attempts to use FU when none available (Count)
system.cpu.statFuBusy::SimdFloatDiv                 0      0.00%     28.22% # attempts to use FU when none available (Count)
system.cpu.statFuBusy::SimdFloatMisc                0      0.00%     28.22% # attempts to use FU when none available (Count)
system.cpu.statFuBusy::SimdFloatMult                0      0.00%     28.22% # attempts to use FU when none available (Count)
system.cpu.statFuBusy::SimdFloatMultAcc             0      0.00%     28.22% # attempts to use FU when none available (Count)
system.cpu.statFuBusy::SimdFloatSqrt                0      0.00%     28.22% # attempts to use FU when none available (Count)
system.cpu.statFuBusy::SimdReduceAdd                0      0.00%     28.22% # attempts to use FU when none available (Count)
system.cpu.statFuBusy::SimdReduceAlu                0      0.00%     28.22% # attempts to use FU when none available (Count)
system.cpu.statFuBusy::SimdReduceCmp                0      0.00%     28.22% # attempts to use FU when none available (Count)
system.cpu.statFuBusy::SimdFloatReduceAdd            0      0.00%     28.22% # attempts to use FU when none available (Count)
system.cpu.statFuBusy::SimdFloatReduceCmp            0      0.00%     28.22% # attempts to use FU when none available (Count)
system.cpu.statFuBusy::SimdAes                      0      0.00%     28.22% # attempts to use FU when none available (Count)
system.cpu.statFuBusy::SimdAesMix                   0      0.00%     28.22% # attempts to use FU when none available (Count)
system.cpu.statFuBusy::SimdSha1Hash                 0      0.00%     28.22% # attempts to use FU when none available (Count)
system.cpu.statFuBusy::SimdSha1Hash2                0      0.00%     28.22% # attempts to use FU when none available (Count)
system.cpu.statFuBusy::SimdSha256Hash               0      0.00%     28.22% # attempts to use FU when none available (Count)
system.cpu.statFuBusy::SimdSha256Hash2              0      0.00%     28.22% # attempts to use FU when none available (Count)
system.cpu.statFuBusy::SimdShaSigma2                0      0.00%     28.22% # attempts to use FU when none available (Count)
system.cpu.statFuBusy::SimdShaSigma3                0      0.00%     28.22% # attempts to use FU when none available (Count)
system.cpu.statFuBusy::SimdPredAlu                  0      0.00%     28.22% # attempts to use FU when none available (Count)
system.cpu.statFuBusy::MemRead                 388161     49.67%     77.89% # attempts to use FU when none available (Count)
system.cpu.statFuBusy::MemWrite                172784     22.11%    100.00% # attempts to use FU when none available (Count)
system.cpu.statFuBusy::FloatMemRead                 0      0.00%    100.00% # attempts to use FU when none available (Count)
system.cpu.statFuBusy::FloatMemWrite                0      0.00%    100.00% # attempts to use FU when none available (Count)
system.cpu.statFuBusy::IprAccess                    0      0.00%    100.00% # attempts to use FU when none available (Count)
system.cpu.statFuBusy::InstPrefetch                 0      0.00%    100.00% # attempts to use FU when none available (Count)
system.cpu.statIssuedInstType_0::No_OpClass        27824      0.05%      0.05% # Number of instructions issued per FU type, per thread (Count)
system.cpu.statIssuedInstType_0::IntAlu      33942451     63.61%     63.67% # Number of instructions issued per FU type, per thread (Count)
system.cpu.statIssuedInstType_0::IntMult       641394      1.20%     64.87% # Number of instructions issued per FU type, per thread (Count)
system.cpu.statIssuedInstType_0::IntDiv        154486      0.29%     65.16% # Number of instructions issued per FU type, per thread (Count)
system.cpu.statIssuedInstType_0::FloatAdd       278537      0.52%     65.68% # Number of instructions issued per FU type, per thread (Count)
system.cpu.statIssuedInstType_0::FloatCmp        16390      0.03%     65.71% # Number of instructions issued per FU type, per thread (Count)
system.cpu.statIssuedInstType_0::FloatCvt            0      0.00%     65.71% # Number of instructions issued per FU type, per thread (Count)
system.cpu.statIssuedInstType_0::FloatMult       262154      0.49%     66.20% # Number of instructions issued per FU type, per thread (Count)
system.cpu.statIssuedInstType_0::FloatMultAcc            0      0.00%     66.20% # Number of instructions issued per FU type, per thread (Count)
system.cpu.statIssuedInstType_0::FloatDiv            0      0.00%     66.20% # Number of instructions issued per FU type, per thread (Count)
system.cpu.statIssuedInstType_0::FloatMisc        61373      0.12%     66.32% # Number of instructions issued per FU type, per thread (Count)
system.cpu.statIssuedInstType_0::FloatSqrt            0      0.00%     66.32% # Number of instructions issued per FU type, per thread (Count)
system.cpu.statIssuedInstType_0::SimdAdd        63181      0.12%     66.44% # Number of instructions issued per FU type, per thread (Count)
system.cpu.statIssuedInstType_0::SimdAddAcc            0      0.00%     66.44% # Number of instructions issued per FU type, per thread (Count)
system.cpu.statIssuedInstType_0::SimdAlu       118768      0.22%     66.66% # Number of instructions issued per FU type, per thread (Count)
system.cpu.statIssuedInstType_0::SimdCmp       111200      0.21%     66.87% # Number of instructions issued per FU type, per thread (Count)
system.cpu.statIssuedInstType_0::SimdCvt            0      0.00%     66.87% # Number of instructions issued per FU type, per thread (Count)
system.cpu.statIssuedInstType_0::SimdMisc        76350      0.14%     67.01% # Number of instructions issued per FU type, per thread (Count)
system.cpu.statIssuedInstType_0::SimdMult            0      0.00%     67.01% # Number of instructions issued per FU type, per thread (Count)
system.cpu.statIssuedInstType_0::SimdMultAcc            0      0.00%     67.01% # Number of instructions issued per FU type, per thread (Count)
system.cpu.statIssuedInstType_0::SimdShift            0      0.00%     67.01% # Number of instructions issued per FU type, per thread (Count)
system.cpu.statIssuedInstType_0::SimdShiftAcc            0      0.00%     67.01% # Number of instructions issued per FU type, per thread (Count)
system.cpu.statIssuedInstType_0::SimdDiv            0      0.00%     67.01% # Number of instructions issued per FU type, per thread (Count)
system.cpu.statIssuedInstType_0::SimdSqrt            0      0.00%     67.01% # Number of instructions issued per FU type, per thread (Count)
system.cpu.statIssuedInstType_0::SimdFloatAdd            0      0.00%     67.01% # Number of instructions issued per FU type, per thread (Count)
system.cpu.statIssuedInstType_0::SimdFloatAlu            0      0.00%     67.01% # Number of instructions issued per FU type, per thread (Count)
system.cpu.statIssuedInstType_0::SimdFloatCmp            0      0.00%     67.01% # Number of instructions issued per FU type, per thread (Count)
system.cpu.statIssuedInstType_0::SimdFloatCvt            0      0.00%     67.01% # Number of instructions issued per FU type, per thread (Count)
system.cpu.statIssuedInstType_0::SimdFloatDiv            0      0.00%     67.01% # Number of instructions issued per FU type, per thread (Count)
system.cpu.statIssuedInstType_0::SimdFloatMisc            0      0.00%     67.01% # Number of instructions issued per FU type, per thread (Count)
system.cpu.statIssuedInstType_0::SimdFloatMult            0      0.00%     67.01% # Number of instructions issued per FU type, per thread (Count)
system.cpu.statIssuedInstType_0::SimdFloatMultAcc            0      0.00%     67.01% # Number of instructions issued per FU type, per thread (Count)
system.cpu.statIssuedInstType_0::SimdFloatSqrt            0      0.00%     67.01% # Number of instructions issued per FU type, per thread (Count)
system.cpu.statIssuedInstType_0::SimdReduceAdd            0      0.00%     67.01% # Number of instructions issued per FU type, per thread (Count)
system.cpu.statIssuedInstType_0::SimdReduceAlu            0      0.00%     67.01% # Number of instructions issued per FU type, per thread (Count)
system.cpu.statIssuedInstType_0::SimdReduceCmp            0      0.00%     67.01% # Number of instructions issued per FU type, per thread (Count)
system.cpu.statIssuedInstType_0::SimdFloatReduceAdd            0      0.00%     67.01% # Number of instructions issued per FU type, per thread (Count)
system.cpu.statIssuedInstType_0::SimdFloatReduceCmp            0      0.00%     67.01% # Number of instructions issued per FU type, per thread (Count)
system.cpu.statIssuedInstType_0::SimdAes            0      0.00%     67.01% # Number of instructions issued per FU type, per thread (Count)
system.cpu.statIssuedInstType_0::SimdAesMix            0      0.00%     67.01% # Number of instructions issued per FU type, per thread (Count)
system.cpu.statIssuedInstType_0::SimdSha1Hash            0      0.00%     67.01% # Number of instructions issued per FU type, per thread (Count)
system.cpu.statIssuedInstType_0::SimdSha1Hash2            0      0.00%     67.01% # Number of instructions issued per FU type, per thread (Count)
system.cpu.statIssuedInstType_0::SimdSha256Hash            0      0.00%     67.01% # Number of instructions issued per FU type, per thread (Count)
system.cpu.statIssuedInstType_0::SimdSha256Hash2            0      0.00%     67.01% # Number of instructions issued per FU type, per thread (Count)
system.cpu.statIssuedInstType_0::SimdShaSigma2            0      0.00%     67.01% # Number of instructions issued per FU type, per thread (Count)
system.cpu.statIssuedInstType_0::SimdShaSigma3            0      0.00%     67.01% # Number of instructions issued per FU type, per thread (Count)
system.cpu.statIssuedInstType_0::SimdPredAlu            0      0.00%     67.01% # Number of instructions issued per FU type, per thread (Count)
system.cpu.statIssuedInstType_0::MemRead     12055385     22.59%     89.60% # Number of instructions issued per FU type, per thread (Count)
system.cpu.statIssuedInstType_0::MemWrite      5546611     10.40%    100.00% # Number of instructions issued per FU type, per thread (Count)
system.cpu.statIssuedInstType_0::FloatMemRead            0      0.00%    100.00% # Number of instructions issued per FU type, per thread (Count)
system.cpu.statIssuedInstType_0::FloatMemWrite            0      0.00%    100.00% # Number of instructions issued per FU type, per thread (Count)
system.cpu.statIssuedInstType_0::IprAccess            0      0.00%    100.00% # Number of instructions issued per FU type, per thread (Count)
system.cpu.statIssuedInstType_0::InstPrefetch            0      0.00%    100.00% # Number of instructions issued per FU type, per thread (Count)
system.cpu.statIssuedInstType_0::total       53356104                       # Number of instructions issued per FU type, per thread (Count)
system.cpu.issueRate                         2.381026                       # Inst issue rate ((Count/Cycle))
system.cpu.fuBusy                              781436                       # FU busy when requested (Count)
system.cpu.fuBusyRate                        0.014646                       # FU busy rate (busy events/executed inst) ((Count/Count))
system.cpu.intInstQueueReads                123717708                       # Number of integer instruction queue reads (Count)
system.cpu.intInstQueueWrites                53724075                       # Number of integer instruction queue writes (Count)
system.cpu.intInstQueueWakeupAccesses        49526703                       # Number of integer instruction queue wakeup accesses (Count)
system.cpu.fpInstQueueReads                         0                       # Number of floating instruction queue reads (Count)
system.cpu.fpInstQueueWrites                        0                       # Number of floating instruction queue writes (Count)
system.cpu.fpInstQueueWakeupAccesses                0                       # Number of floating instruction queue wakeup accesses (Count)
system.cpu.vecInstQueueReads                  5753918                       # Number of vector instruction queue reads (Count)
system.cpu.vecInstQueueWrites                 2916553                       # Number of vector instruction queue writes (Count)
system.cpu.vecInstQueueWakeupAccesses         2860372                       # Number of vector instruction queue wakeup accesses (Count)
system.cpu.intAluAccesses                    51250294                       # Number of integer alu accesses (Count)
system.cpu.fpAluAccesses                            0                       # Number of floating point alu accesses (Count)
system.cpu.vecAluAccesses                     2859422                       # Number of vector alu accesses (Count)
system.cpu.numInsts                          53205373                       # Number of executed instructions (Count)
system.cpu.numLoadInsts                      11999268                       # Number of load instructions executed (Count)
system.cpu.numSquashedInsts                    150731                       # Number of squashed instructions skipped in execute (Count)
system.cpu.numSwp                                   0                       # Number of swp insts executed (Count)
system.cpu.numNop                               65658                       # Number of nop insts executed (Count)
system.cpu.numRefs                           17533289                       # Number of memory reference insts executed (Count)
system.cpu.numBranches                        6976804                       # Number of branches executed (Count)
system.cpu.numStoreInsts                      5534021                       # Number of stores executed (Count)
system.cpu.numRate                           2.374300                       # Inst execution rate ((Count/Cycle))
system.cpu.timesIdled                           20925                       # Number of times that the entire CPU went into an idle state and unscheduled itself (Count)
system.cpu.idleCycles                          456295                       # Total number of cycles that the CPU has spent unscheduled due to idling (Cycle)
system.cpu.committedInsts                    46326279                       # Number of Instructions Simulated (Count)
system.cpu.committedOps                      50666649                       # Number of Ops (including micro ops) Simulated (Count)
system.cpu.cpi                               0.483718                       # CPI: Cycles Per Instruction ((Cycle/Count))
system.cpu.totalCpi                          0.483718                       # CPI: Total CPI of All Threads ((Cycle/Count))
system.cpu.ipc                               2.067319                       # IPC: Instructions Per Cycle ((Count/Cycle))
system.cpu.totalIpc                          2.067319                       # IPC: Total IPC of All Threads ((Count/Cycle))
system.cpu.intRegfileReads                   63762731                       # Number of integer regfile reads (Count)
system.cpu.intRegfileWrites                  39301778                       # Number of integer regfile writes (Count)
system.cpu.vecRegfileReads                    2431433                       # number of vector regfile reads (Count)
system.cpu.vecRegfileWrites                   2173004                       # number of vector regfile writes (Count)
system.cpu.ccRegfileReads                    14905791                       # number of cc regfile reads (Count)
system.cpu.ccRegfileWrites                   14740237                       # number of cc regfile writes (Count)
system.cpu.miscRegfileReads                 100703798                       # number of misc regfile reads (Count)
system.cpu.miscRegfileWrites                   561209                       # number of misc regfile writes (Count)
system.cpu.MemDepUnit__0.insertedLoads       11478418                       # Number of loads inserted to the mem dependence unit. (Count)
system.cpu.MemDepUnit__0.insertedStores       5622340                       # Number of stores inserted to the mem dependence unit. (Count)
system.cpu.MemDepUnit__0.conflictingLoads      2735445                       # Number of conflicting loads. (Count)
system.cpu.MemDepUnit__0.conflictingStores       772796                       # Number of conflicting stores. (Count)
system.cpu.MemDepUnit__1.insertedLoads              0                       # Number of loads inserted to the mem dependence unit. (Count)
system.cpu.MemDepUnit__1.insertedStores             0                       # Number of stores inserted to the mem dependence unit. (Count)
system.cpu.MemDepUnit__1.conflictingLoads            0                       # Number of conflicting loads. (Count)
system.cpu.MemDepUnit__1.conflictingStores            0                       # Number of conflicting stores. (Count)
system.cpu.MemDepUnit__2.insertedLoads              0                       # Number of loads inserted to the mem dependence unit. (Count)
system.cpu.MemDepUnit__2.insertedStores             0                       # Number of stores inserted to the mem dependence unit. (Count)
system.cpu.MemDepUnit__2.conflictingLoads            0                       # Number of conflicting loads. (Count)
system.cpu.MemDepUnit__2.conflictingStores            0                       # Number of conflicting stores. (Count)
system.cpu.MemDepUnit__3.insertedLoads              0                       # Number of loads inserted to the mem dependence unit. (Count)
system.cpu.MemDepUnit__3.insertedStores             0                       # Number of stores inserted to the mem dependence unit. (Count)
system.cpu.MemDepUnit__3.conflictingLoads            0                       # Number of conflicting loads. (Count)
system.cpu.MemDepUnit__3.conflictingStores            0                       # Number of conflicting stores. (Count)
system.cpu.branchPred.lookups                 7500336                       # Number of BP lookups (Count)
system.cpu.branchPred.condPredicted           5676289                       # Number of conditional branches predicted (Count)
system.cpu.branchPred.condIncorrect            105863                       # Number of conditional branches incorrect (Count)
system.cpu.branchPred.BTBLookups              4237831                       # Number of BTB lookups (Count)
system.cpu.branchPred.BTBHits                 4214724                       # Number of BTB hits (Count)
system.cpu.branchPred.BTBHitRatio            0.994547                       # BTB Hit Ratio (Ratio)
system.cpu.branchPred.RASUsed                  569277                       # Number of times the RAS was used to get a target. (Count)
system.cpu.branchPred.RASIncorrect                  4                       # Number of incorrect RAS predictions. (Count)
system.cpu.branchPred.indirectLookups           76636                       # Number of indirect predictor lookups. (Count)
system.cpu.branchPred.indirectHits              75389                       # Number of indirect target hits. (Count)
system.cpu.branchPred.indirectMisses             1247                       # Number of indirect misses. (Count)
system.cpu.branchPred.indirectMispredicted           99                       # Number of mispredicted indirect branches. (Count)
system.cpu.commit.commitSquashedInsts         2991921                       # The number of squashed insts skipped by commit (Count)
system.cpu.commit.commitNonSpecStalls            4171                       # The number of times commit has been forced to stall to communicate backwards (Count)
system.cpu.commit.branchMispredicts             92891                       # The number of times a branch was mispredicted (Count)
system.cpu.commit.numCommittedDist::samples     21527171                       # Number of insts commited each cycle (Count)
system.cpu.commit.numCommittedDist::mean     2.356399                       # Number of insts commited each cycle (Count)
system.cpu.commit.numCommittedDist::stdev     2.972408                       # Number of insts commited each cycle (Count)
system.cpu.commit.numCommittedDist::underflows            0      0.00%      0.00% # Number of insts commited each cycle (Count)
system.cpu.commit.numCommittedDist::0         8415890     39.09%     39.09% # Number of insts commited each cycle (Count)
system.cpu.commit.numCommittedDist::1         4474869     20.79%     59.88% # Number of insts commited each cycle (Count)
system.cpu.commit.numCommittedDist::2         2019713      9.38%     69.26% # Number of insts commited each cycle (Count)
system.cpu.commit.numCommittedDist::3         1257112      5.84%     75.10% # Number of insts commited each cycle (Count)
system.cpu.commit.numCommittedDist::4          466137      2.17%     77.27% # Number of insts commited each cycle (Count)
system.cpu.commit.numCommittedDist::5          552578      2.57%     79.84% # Number of insts commited each cycle (Count)
system.cpu.commit.numCommittedDist::6          237264      1.10%     80.94% # Number of insts commited each cycle (Count)
system.cpu.commit.numCommittedDist::7          438906      2.04%     82.98% # Number of insts commited each cycle (Count)
system.cpu.commit.numCommittedDist::8         3664702     17.02%    100.00% # Number of insts commited each cycle (Count)
system.cpu.commit.numCommittedDist::overflows            0      0.00%    100.00% # Number of insts commited each cycle (Count)
system.cpu.commit.numCommittedDist::min_value            0                       # Number of insts commited each cycle (Count)
system.cpu.commit.numCommittedDist::max_value            8                       # Number of insts commited each cycle (Count)
system.cpu.commit.numCommittedDist::total     21527171                       # Number of insts commited each cycle (Count)
system.cpu.commit.instsCommitted             46386241                       # Number of instructions committed (Count)
system.cpu.commit.opsCommitted               50726611                       # Number of ops (including micro ops) committed (Count)
system.cpu.commit.memRefs                    16302297                       # Number of memory references committed (Count)
system.cpu.commit.loads                      11006940                       # Number of loads committed (Count)
system.cpu.commit.amos                             20                       # Number of atomic instructions committed (Count)
system.cpu.commit.membars                          24                       # Number of memory barriers committed (Count)
system.cpu.commit.branches                    6723046                       # Number of branches committed (Count)
system.cpu.commit.vectorInstructions          2842563                       # Number of committed Vector instructions. (Count)
system.cpu.commit.floating                          0                       # Number of committed floating point instructions. (Count)
system.cpu.commit.integer                    45425700                       # Number of committed integer instructions. (Count)
system.cpu.commit.functionCalls                508101                       # Number of function calls committed. (Count)
system.cpu.commit.committedInstType_0::No_OpClass        27678      0.05%      0.05% # Class of committed instruction (Count)
system.cpu.commit.committedInstType_0::IntAlu     32627942     64.32%     64.38% # Class of committed instruction (Count)
system.cpu.commit.committedInstType_0::IntMult       641224      1.26%     65.64% # Class of committed instruction (Count)
system.cpu.commit.committedInstType_0::IntDiv       153813      0.30%     65.94% # Class of committed instruction (Count)
system.cpu.commit.committedInstType_0::FloatAdd       278528      0.55%     66.49% # Class of committed instruction (Count)
system.cpu.commit.committedInstType_0::FloatCmp        16384      0.03%     66.52% # Class of committed instruction (Count)
system.cpu.commit.committedInstType_0::FloatCvt            0      0.00%     66.52% # Class of committed instruction (Count)
system.cpu.commit.committedInstType_0::FloatMult       262144      0.52%     67.04% # Class of committed instruction (Count)
system.cpu.commit.committedInstType_0::FloatMultAcc            0      0.00%     67.04% # Class of committed instruction (Count)
system.cpu.commit.committedInstType_0::FloatDiv            0      0.00%     67.04% # Class of committed instruction (Count)
system.cpu.commit.committedInstType_0::FloatMisc        49152      0.10%     67.14% # Class of committed instruction (Count)
system.cpu.commit.committedInstType_0::FloatSqrt            0      0.00%     67.14% # Class of committed instruction (Count)
system.cpu.commit.committedInstType_0::SimdAdd        62740      0.12%     67.26% # Class of committed instruction (Count)
system.cpu.commit.committedInstType_0::SimdAddAcc            0      0.00%     67.26% # Class of committed instruction (Count)
system.cpu.commit.committedInstType_0::SimdAlu       118039      0.23%     67.49% # Class of committed instruction (Count)
system.cpu.commit.committedInstType_0::SimdCmp       110616      0.22%     67.71% # Class of committed instruction (Count)
system.cpu.commit.committedInstType_0::SimdCvt            0      0.00%     67.71% # Class of committed instruction (Count)
system.cpu.commit.committedInstType_0::SimdMisc        76054      0.15%     67.86% # Class of committed instruction (Count)
system.cpu.commit.committedInstType_0::SimdMult            0      0.00%     67.86% # Class of committed instruction (Count)
system.cpu.commit.committedInstType_0::SimdMultAcc            0      0.00%     67.86% # Class of committed instruction (Count)
system.cpu.commit.committedInstType_0::SimdShift            0      0.00%     67.86% # Class of committed instruction (Count)
system.cpu.commit.committedInstType_0::SimdShiftAcc            0      0.00%     67.86% # Class of committed instruction (Count)
system.cpu.commit.committedInstType_0::SimdDiv            0      0.00%     67.86% # Class of committed instruction (Count)
system.cpu.commit.committedInstType_0::SimdSqrt            0      0.00%     67.86% # Class of committed instruction (Count)
system.cpu.commit.committedInstType_0::SimdFloatAdd            0      0.00%     67.86% # Class of committed instruction (Count)
system.cpu.commit.committedInstType_0::SimdFloatAlu            0      0.00%     67.86% # Class of committed instruction (Count)
system.cpu.commit.committedInstType_0::SimdFloatCmp            0      0.00%     67.86% # Class of committed instruction (Count)
system.cpu.commit.committedInstType_0::SimdFloatCvt            0      0.00%     67.86% # Class of committed instruction (Count)
system.cpu.commit.committedInstType_0::SimdFloatDiv            0      0.00%     67.86% # Class of committed instruction (Count)
system.cpu.commit.committedInstType_0::SimdFloatMisc            0      0.00%     67.86% # Class of committed instruction (Count)
system.cpu.commit.committedInstType_0::SimdFloatMult            0      0.00%     67.86% # Class of committed instruction (Count)
system.cpu.commit.committedInstType_0::SimdFloatMultAcc            0      0.00%     67.86% # Class of committed instruction (Count)
system.cpu.commit.committedInstType_0::SimdFloatSqrt            0      0.00%     67.86% # Class of committed instruction (Count)
system.cpu.commit.committedInstType_0::SimdReduceAdd            0      0.00%     67.86% # Class of committed instruction (Count)
system.cpu.commit.committedInstType_0::SimdReduceAlu            0      0.00%     67.86% # Class of committed instruction (Count)
system.cpu.commit.committedInstType_0::SimdReduceCmp            0      0.00%     67.86% # Class of committed instruction (Count)
system.cpu.commit.committedInstType_0::SimdFloatReduceAdd            0      0.00%     67.86% # Class of committed instruction (Count)
system.cpu.commit.committedInstType_0::SimdFloatReduceCmp            0      0.00%     67.86% # Class of committed instruction (Count)
system.cpu.commit.committedInstType_0::SimdAes            0      0.00%     67.86% # Class of committed instruction (Count)
system.cpu.commit.committedInstType_0::SimdAesMix            0      0.00%     67.86% # Class of committed instruction (Count)
system.cpu.commit.committedInstType_0::SimdSha1Hash            0      0.00%     67.86% # Class of committed instruction (Count)
system.cpu.commit.committedInstType_0::SimdSha1Hash2            0      0.00%     67.86% # Class of committed instruction (Count)
system.cpu.commit.committedInstType_0::SimdSha256Hash            0      0.00%     67.86% # Class of committed instruction (Count)
system.cpu.commit.committedInstType_0::SimdSha256Hash2            0      0.00%     67.86% # Class of committed instruction (Count)
system.cpu.commit.committedInstType_0::SimdShaSigma2            0      0.00%     67.86% # Class of committed instruction (Count)
system.cpu.commit.committedInstType_0::SimdShaSigma3            0      0.00%     67.86% # Class of committed instruction (Count)
system.cpu.commit.committedInstType_0::SimdPredAlu            0      0.00%     67.86% # Class of committed instruction (Count)
system.cpu.commit.committedInstType_0::MemRead     11006940     21.70%     89.56% # Class of committed instruction (Count)
system.cpu.commit.committedInstType_0::MemWrite      5295357     10.44%    100.00% # Class of committed instruction (Count)
system.cpu.commit.committedInstType_0::FloatMemRead            0      0.00%    100.00% # Class of committed instruction (Count)
system.cpu.commit.committedInstType_0::FloatMemWrite            0      0.00%    100.00% # Class of committed instruction (Count)
system.cpu.commit.committedInstType_0::IprAccess            0      0.00%    100.00% # Class of committed instruction (Count)
system.cpu.commit.committedInstType_0::InstPrefetch            0      0.00%    100.00% # Class of committed instruction (Count)
system.cpu.commit.committedInstType_0::total     50726611                       # Class of committed instruction (Count)
system.cpu.commit.commitEligibleSamples       3664702                       # number cycles where commit BW limit reached (Cycle)
system.cpu.dcache.demandHits::cpu.data       13977273                       # number of demand (read+write) hits (Count)
system.cpu.dcache.demandHits::total          13977273                       # number of demand (read+write) hits (Count)
system.cpu.dcache.overallHits::cpu.data      14007086                       # number of overall hits (Count)
system.cpu.dcache.overallHits::total         14007086                       # number of overall hits (Count)
system.cpu.dcache.demandMisses::cpu.data        29109                       # number of demand (read+write) misses (Count)
system.cpu.dcache.demandMisses::total           29109                       # number of demand (read+write) misses (Count)
system.cpu.dcache.overallMisses::cpu.data        29140                       # number of overall misses (Count)
system.cpu.dcache.overallMisses::total          29140                       # number of overall misses (Count)
system.cpu.dcache.demandMissLatency::cpu.data   1606684252                       # number of demand (read+write) miss ticks (Tick)
system.cpu.dcache.demandMissLatency::total   1606684252                       # number of demand (read+write) miss ticks (Tick)
system.cpu.dcache.overallMissLatency::cpu.data   1606684252                       # number of overall miss ticks (Tick)
system.cpu.dcache.overallMissLatency::total   1606684252                       # number of overall miss ticks (Tick)
system.cpu.dcache.demandAccesses::cpu.data     14006382                       # number of demand (read+write) accesses (Count)
system.cpu.dcache.demandAccesses::total      14006382                       # number of demand (read+write) accesses (Count)
system.cpu.dcache.overallAccesses::cpu.data     14036226                       # number of overall (read+write) accesses (Count)
system.cpu.dcache.overallAccesses::total     14036226                       # number of overall (read+write) accesses (Count)
system.cpu.dcache.demandMissRate::cpu.data     0.002078                       # miss rate for demand accesses (Ratio)
system.cpu.dcache.demandMissRate::total      0.002078                       # miss rate for demand accesses (Ratio)
system.cpu.dcache.overallMissRate::cpu.data     0.002076                       # miss rate for overall accesses (Ratio)
system.cpu.dcache.overallMissRate::total     0.002076                       # miss rate for overall accesses (Ratio)
system.cpu.dcache.demandAvgMissLatency::cpu.data 55195.446494                       # average overall miss latency ((Cycle/Count))
system.cpu.dcache.demandAvgMissLatency::total 55195.446494                       # average overall miss latency ((Cycle/Count))
system.cpu.dcache.overallAvgMissLatency::cpu.data 55136.727934                       # average overall miss latency ((Cycle/Count))
system.cpu.dcache.overallAvgMissLatency::total 55136.727934                       # average overall miss latency ((Cycle/Count))
system.cpu.dcache.blockedCycles::no_mshrs        11455                       # number of cycles access was blocked (Cycle)
system.cpu.dcache.blockedCycles::no_targets            0                       # number of cycles access was blocked (Cycle)
system.cpu.dcache.blockedCauses::no_mshrs         1438                       # number of times access was blocked (Count)
system.cpu.dcache.blockedCauses::no_targets            0                       # number of times access was blocked (Count)
system.cpu.dcache.avgBlocked::no_mshrs       7.965925                       # average number of cycles each access was blocked ((Cycle/Count))
system.cpu.dcache.avgBlocked::no_targets          nan                       # average number of cycles each access was blocked ((Cycle/Count))
system.cpu.dcache.writebacks::writebacks         7714                       # number of writebacks (Count)
system.cpu.dcache.writebacks::total              7714                       # number of writebacks (Count)
system.cpu.dcache.demandMshrHits::cpu.data        15486                       # number of demand (read+write) MSHR hits (Count)
system.cpu.dcache.demandMshrHits::total         15486                       # number of demand (read+write) MSHR hits (Count)
system.cpu.dcache.overallMshrHits::cpu.data        15486                       # number of overall MSHR hits (Count)
system.cpu.dcache.overallMshrHits::total        15486                       # number of overall MSHR hits (Count)
system.cpu.dcache.demandMshrMisses::cpu.data        13623                       # number of demand (read+write) MSHR misses (Count)
system.cpu.dcache.demandMshrMisses::total        13623                       # number of demand (read+write) MSHR misses (Count)
system.cpu.dcache.overallMshrMisses::cpu.data        13654                       # number of overall MSHR misses (Count)
system.cpu.dcache.overallMshrMisses::total        13654                       # number of overall MSHR misses (Count)
system.cpu.dcache.demandMshrMissLatency::cpu.data    724667288                       # number of demand (read+write) MSHR miss ticks (Tick)
system.cpu.dcache.demandMshrMissLatency::total    724667288                       # number of demand (read+write) MSHR miss ticks (Tick)
system.cpu.dcache.overallMshrMissLatency::cpu.data    727153788                       # number of overall MSHR miss ticks (Tick)
system.cpu.dcache.overallMshrMissLatency::total    727153788                       # number of overall MSHR miss ticks (Tick)
system.cpu.dcache.demandMshrMissRate::cpu.data     0.000973                       # mshr miss ratio for demand accesses (Ratio)
system.cpu.dcache.demandMshrMissRate::total     0.000973                       # mshr miss ratio for demand accesses (Ratio)
system.cpu.dcache.overallMshrMissRate::cpu.data     0.000973                       # mshr miss ratio for overall accesses (Ratio)
system.cpu.dcache.overallMshrMissRate::total     0.000973                       # mshr miss ratio for overall accesses (Ratio)
system.cpu.dcache.demandAvgMshrMissLatency::cpu.data 53194.398297                       # average overall mshr miss latency ((Cycle/Count))
system.cpu.dcache.demandAvgMshrMissLatency::total 53194.398297                       # average overall mshr miss latency ((Cycle/Count))
system.cpu.dcache.overallAvgMshrMissLatency::cpu.data 53255.733704                       # average overall mshr miss latency ((Cycle/Count))
system.cpu.dcache.overallAvgMshrMissLatency::total 53255.733704                       # average overall mshr miss latency ((Cycle/Count))
system.cpu.dcache.replacements                  12631                       # number of replacements (Count)
system.cpu.dcache.LoadLockedReq.hits::cpu.data            5                       # number of LoadLockedReq hits (Count)
system.cpu.dcache.LoadLockedReq.hits::total            5                       # number of LoadLockedReq hits (Count)
system.cpu.dcache.LoadLockedReq.accesses::cpu.data            5                       # number of LoadLockedReq accesses(hits+misses) (Count)
system.cpu.dcache.LoadLockedReq.accesses::total            5                       # number of LoadLockedReq accesses(hits+misses) (Count)
system.cpu.dcache.ReadReq.hits::cpu.data      8685994                       # number of ReadReq hits (Count)
system.cpu.dcache.ReadReq.hits::total         8685994                       # number of ReadReq hits (Count)
system.cpu.dcache.ReadReq.misses::cpu.data        25053                       # number of ReadReq misses (Count)
system.cpu.dcache.ReadReq.misses::total         25053                       # number of ReadReq misses (Count)
system.cpu.dcache.ReadReq.missLatency::cpu.data   1442941000                       # number of ReadReq miss ticks (Tick)
system.cpu.dcache.ReadReq.missLatency::total   1442941000                       # number of ReadReq miss ticks (Tick)
system.cpu.dcache.ReadReq.accesses::cpu.data      8711047                       # number of ReadReq accesses(hits+misses) (Count)
system.cpu.dcache.ReadReq.accesses::total      8711047                       # number of ReadReq accesses(hits+misses) (Count)
system.cpu.dcache.ReadReq.missRate::cpu.data     0.002876                       # miss rate for ReadReq accesses (Ratio)
system.cpu.dcache.ReadReq.missRate::total     0.002876                       # miss rate for ReadReq accesses (Ratio)
system.cpu.dcache.ReadReq.avgMissLatency::cpu.data 57595.537461                       # average ReadReq miss latency ((Tick/Count))
system.cpu.dcache.ReadReq.avgMissLatency::total 57595.537461                       # average ReadReq miss latency ((Tick/Count))
system.cpu.dcache.ReadReq.mshrHits::cpu.data        14710                       # number of ReadReq MSHR hits (Count)
system.cpu.dcache.ReadReq.mshrHits::total        14710                       # number of ReadReq MSHR hits (Count)
system.cpu.dcache.ReadReq.mshrMisses::cpu.data        10343                       # number of ReadReq MSHR misses (Count)
system.cpu.dcache.ReadReq.mshrMisses::total        10343                       # number of ReadReq MSHR misses (Count)
system.cpu.dcache.ReadReq.mshrMissLatency::cpu.data    597457000                       # number of ReadReq MSHR miss ticks (Tick)
system.cpu.dcache.ReadReq.mshrMissLatency::total    597457000                       # number of ReadReq MSHR miss ticks (Tick)
system.cpu.dcache.ReadReq.mshrMissRate::cpu.data     0.001187                       # mshr miss rate for ReadReq accesses (Ratio)
system.cpu.dcache.ReadReq.mshrMissRate::total     0.001187                       # mshr miss rate for ReadReq accesses (Ratio)
system.cpu.dcache.ReadReq.avgMshrMissLatency::cpu.data 57764.381707                       # average ReadReq mshr miss latency ((Tick/Count))
system.cpu.dcache.ReadReq.avgMshrMissLatency::total 57764.381707                       # average ReadReq mshr miss latency ((Tick/Count))
system.cpu.dcache.SoftPFReq.hits::cpu.data        29813                       # number of SoftPFReq hits (Count)
system.cpu.dcache.SoftPFReq.hits::total         29813                       # number of SoftPFReq hits (Count)
system.cpu.dcache.SoftPFReq.misses::cpu.data           31                       # number of SoftPFReq misses (Count)
system.cpu.dcache.SoftPFReq.misses::total           31                       # number of SoftPFReq misses (Count)
system.cpu.dcache.SoftPFReq.accesses::cpu.data        29844                       # number of SoftPFReq accesses(hits+misses) (Count)
system.cpu.dcache.SoftPFReq.accesses::total        29844                       # number of SoftPFReq accesses(hits+misses) (Count)
system.cpu.dcache.SoftPFReq.missRate::cpu.data     0.001039                       # miss rate for SoftPFReq accesses (Ratio)
system.cpu.dcache.SoftPFReq.missRate::total     0.001039                       # miss rate for SoftPFReq accesses (Ratio)
system.cpu.dcache.SoftPFReq.mshrMisses::cpu.data           31                       # number of SoftPFReq MSHR misses (Count)
system.cpu.dcache.SoftPFReq.mshrMisses::total           31                       # number of SoftPFReq MSHR misses (Count)
system.cpu.dcache.SoftPFReq.mshrMissLatency::cpu.data      2486500                       # number of SoftPFReq MSHR miss ticks (Tick)
system.cpu.dcache.SoftPFReq.mshrMissLatency::total      2486500                       # number of SoftPFReq MSHR miss ticks (Tick)
system.cpu.dcache.SoftPFReq.mshrMissRate::cpu.data     0.001039                       # mshr miss rate for SoftPFReq accesses (Ratio)
system.cpu.dcache.SoftPFReq.mshrMissRate::total     0.001039                       # mshr miss rate for SoftPFReq accesses (Ratio)
system.cpu.dcache.SoftPFReq.avgMshrMissLatency::cpu.data 80209.677419                       # average SoftPFReq mshr miss latency ((Tick/Count))
system.cpu.dcache.SoftPFReq.avgMshrMissLatency::total 80209.677419                       # average SoftPFReq mshr miss latency ((Tick/Count))
system.cpu.dcache.StoreCondReq.hits::cpu.data            4                       # number of StoreCondReq hits (Count)
system.cpu.dcache.StoreCondReq.hits::total            4                       # number of StoreCondReq hits (Count)
system.cpu.dcache.StoreCondReq.accesses::cpu.data            4                       # number of StoreCondReq accesses(hits+misses) (Count)
system.cpu.dcache.StoreCondReq.accesses::total            4                       # number of StoreCondReq accesses(hits+misses) (Count)
system.cpu.dcache.SwapReq.hits::cpu.data           19                       # number of SwapReq hits (Count)
system.cpu.dcache.SwapReq.hits::total              19                       # number of SwapReq hits (Count)
system.cpu.dcache.SwapReq.misses::cpu.data            1                       # number of SwapReq misses (Count)
system.cpu.dcache.SwapReq.misses::total             1                       # number of SwapReq misses (Count)
system.cpu.dcache.SwapReq.missLatency::cpu.data        79000                       # number of SwapReq miss ticks (Tick)
system.cpu.dcache.SwapReq.missLatency::total        79000                       # number of SwapReq miss ticks (Tick)
system.cpu.dcache.SwapReq.accesses::cpu.data           20                       # number of SwapReq accesses(hits+misses) (Count)
system.cpu.dcache.SwapReq.accesses::total           20                       # number of SwapReq accesses(hits+misses) (Count)
system.cpu.dcache.SwapReq.missRate::cpu.data     0.050000                       # miss rate for SwapReq accesses (Ratio)
system.cpu.dcache.SwapReq.missRate::total     0.050000                       # miss rate for SwapReq accesses (Ratio)
system.cpu.dcache.SwapReq.avgMissLatency::cpu.data        79000                       # average SwapReq miss latency ((Tick/Count))
system.cpu.dcache.SwapReq.avgMissLatency::total        79000                       # average SwapReq miss latency ((Tick/Count))
system.cpu.dcache.SwapReq.mshrMisses::cpu.data            1                       # number of SwapReq MSHR misses (Count)
system.cpu.dcache.SwapReq.mshrMisses::total            1                       # number of SwapReq MSHR misses (Count)
system.cpu.dcache.SwapReq.mshrMissLatency::cpu.data        78000                       # number of SwapReq MSHR miss ticks (Tick)
system.cpu.dcache.SwapReq.mshrMissLatency::total        78000                       # number of SwapReq MSHR miss ticks (Tick)
system.cpu.dcache.SwapReq.mshrMissRate::cpu.data     0.050000                       # mshr miss rate for SwapReq accesses (Ratio)
system.cpu.dcache.SwapReq.mshrMissRate::total     0.050000                       # mshr miss rate for SwapReq accesses (Ratio)
system.cpu.dcache.SwapReq.avgMshrMissLatency::cpu.data        78000                       # average SwapReq mshr miss latency ((Tick/Count))
system.cpu.dcache.SwapReq.avgMshrMissLatency::total        78000                       # average SwapReq mshr miss latency ((Tick/Count))
system.cpu.dcache.WriteLineReq.misses::cpu.data         1540                       # number of WriteLineReq misses (Count)
system.cpu.dcache.WriteLineReq.misses::total         1540                       # number of WriteLineReq misses (Count)
system.cpu.dcache.WriteLineReq.missLatency::cpu.data     22189793                       # number of WriteLineReq miss ticks (Tick)
system.cpu.dcache.WriteLineReq.missLatency::total     22189793                       # number of WriteLineReq miss ticks (Tick)
system.cpu.dcache.WriteLineReq.accesses::cpu.data         1540                       # number of WriteLineReq accesses(hits+misses) (Count)
system.cpu.dcache.WriteLineReq.accesses::total         1540                       # number of WriteLineReq accesses(hits+misses) (Count)
system.cpu.dcache.WriteLineReq.missRate::cpu.data            1                       # miss rate for WriteLineReq accesses (Ratio)
system.cpu.dcache.WriteLineReq.missRate::total            1                       # miss rate for WriteLineReq accesses (Ratio)
system.cpu.dcache.WriteLineReq.avgMissLatency::cpu.data 14408.956494                       # average WriteLineReq miss latency ((Tick/Count))
system.cpu.dcache.WriteLineReq.avgMissLatency::total 14408.956494                       # average WriteLineReq miss latency ((Tick/Count))
system.cpu.dcache.WriteLineReq.mshrMisses::cpu.data         1540                       # number of WriteLineReq MSHR misses (Count)
system.cpu.dcache.WriteLineReq.mshrMisses::total         1540                       # number of WriteLineReq MSHR misses (Count)
system.cpu.dcache.WriteLineReq.mshrMissLatency::cpu.data     20649793                       # number of WriteLineReq MSHR miss ticks (Tick)
system.cpu.dcache.WriteLineReq.mshrMissLatency::total     20649793                       # number of WriteLineReq MSHR miss ticks (Tick)
system.cpu.dcache.WriteLineReq.mshrMissRate::cpu.data            1                       # mshr miss rate for WriteLineReq accesses (Ratio)
system.cpu.dcache.WriteLineReq.mshrMissRate::total            1                       # mshr miss rate for WriteLineReq accesses (Ratio)
system.cpu.dcache.WriteLineReq.avgMshrMissLatency::cpu.data 13408.956494                       # average WriteLineReq mshr miss latency ((Tick/Count))
system.cpu.dcache.WriteLineReq.avgMshrMissLatency::total 13408.956494                       # average WriteLineReq mshr miss latency ((Tick/Count))
system.cpu.dcache.WriteReq.hits::cpu.data      5291279                       # number of WriteReq hits (Count)
system.cpu.dcache.WriteReq.hits::total        5291279                       # number of WriteReq hits (Count)
system.cpu.dcache.WriteReq.misses::cpu.data         2516                       # number of WriteReq misses (Count)
system.cpu.dcache.WriteReq.misses::total         2516                       # number of WriteReq misses (Count)
system.cpu.dcache.WriteReq.missLatency::cpu.data    141553459                       # number of WriteReq miss ticks (Tick)
system.cpu.dcache.WriteReq.missLatency::total    141553459                       # number of WriteReq miss ticks (Tick)
system.cpu.dcache.WriteReq.accesses::cpu.data      5293795                       # number of WriteReq accesses(hits+misses) (Count)
system.cpu.dcache.WriteReq.accesses::total      5293795                       # number of WriteReq accesses(hits+misses) (Count)
system.cpu.dcache.WriteReq.missRate::cpu.data     0.000475                       # miss rate for WriteReq accesses (Ratio)
system.cpu.dcache.WriteReq.missRate::total     0.000475                       # miss rate for WriteReq accesses (Ratio)
system.cpu.dcache.WriteReq.avgMissLatency::cpu.data 56261.311208                       # average WriteReq miss latency ((Tick/Count))
system.cpu.dcache.WriteReq.avgMissLatency::total 56261.311208                       # average WriteReq miss latency ((Tick/Count))
system.cpu.dcache.WriteReq.mshrHits::cpu.data          776                       # number of WriteReq MSHR hits (Count)
system.cpu.dcache.WriteReq.mshrHits::total          776                       # number of WriteReq MSHR hits (Count)
system.cpu.dcache.WriteReq.mshrMisses::cpu.data         1740                       # number of WriteReq MSHR misses (Count)
system.cpu.dcache.WriteReq.mshrMisses::total         1740                       # number of WriteReq MSHR misses (Count)
system.cpu.dcache.WriteReq.mshrMissLatency::cpu.data    106560495                       # number of WriteReq MSHR miss ticks (Tick)
system.cpu.dcache.WriteReq.mshrMissLatency::total    106560495                       # number of WriteReq MSHR miss ticks (Tick)
system.cpu.dcache.WriteReq.mshrMissRate::cpu.data     0.000329                       # mshr miss rate for WriteReq accesses (Ratio)
system.cpu.dcache.WriteReq.mshrMissRate::total     0.000329                       # mshr miss rate for WriteReq accesses (Ratio)
system.cpu.dcache.WriteReq.avgMshrMissLatency::cpu.data 61241.663793                       # average WriteReq mshr miss latency ((Tick/Count))
system.cpu.dcache.WriteReq.avgMshrMissLatency::total 61241.663793                       # average WriteReq mshr miss latency ((Tick/Count))
system.cpu.dcache.power_state.pwrStateResidencyTicks::UNDEFINED  11204432500                       # Cumulative time (in ticks) in various power states (Tick)
system.cpu.dcache.tags.tagsInUse          1022.630823                       # Average ticks per tags in use ((Tick/Count))
system.cpu.dcache.tags.totalRefs             14020769                       # Total number of references to valid blocks. (Count)
system.cpu.dcache.tags.sampledRefs              13655                       # Sample count of references to valid blocks. (Count)
system.cpu.dcache.tags.avgRefs            1026.786452                       # Average number of references to valid blocks. ((Count/Count))
system.cpu.dcache.tags.warmupTick              145000                       # The tick when the warmup percentage was hit. (Tick)
system.cpu.dcache.tags.occupancies::cpu.data  1022.630823                       # Average occupied blocks per tick, per requestor ((Count/Tick))
system.cpu.dcache.tags.avgOccs::cpu.data     0.998663                       # Average percentage of cache occupancy ((Ratio/Tick))
system.cpu.dcache.tags.avgOccs::total        0.998663                       # Average percentage of cache occupancy ((Ratio/Tick))
system.cpu.dcache.tags.occupanciesTaskId::1024         1024                       # Occupied blocks per task id (Count)
system.cpu.dcache.tags.ageTaskId_1024::0          103                       # Occupied blocks per task id, per block age (Count)
system.cpu.dcache.tags.ageTaskId_1024::1          857                       # Occupied blocks per task id, per block age (Count)
system.cpu.dcache.tags.ageTaskId_1024::2           63                       # Occupied blocks per task id, per block age (Count)
system.cpu.dcache.tags.ageTaskId_1024::3            1                       # Occupied blocks per task id, per block age (Count)
system.cpu.dcache.tags.ratioOccsTaskId::1024            1                       # Ratio of occupied blocks and all blocks, per task id (Ratio)
system.cpu.dcache.tags.tagAccesses           28086165                       # Number of tag accesses (Count)
system.cpu.dcache.tags.dataAccesses          28086165                       # Number of data accesses (Count)
system.cpu.dcache.tags.power_state.pwrStateResidencyTicks::UNDEFINED  11204432500                       # Cumulative time (in ticks) in various power states (Tick)
system.cpu.decode.idleCycles                  5470053                       # Number of cycles decode is idle (Cycle)
system.cpu.decode.blockedCycles               7048136                       # Number of cycles decode is blocked (Cycle)
system.cpu.decode.runCycles                   7511410                       # Number of cycles decode is running (Cycle)
system.cpu.decode.unblockCycles               1825266                       # Number of cycles decode is unblocking (Cycle)
system.cpu.decode.squashCycles                  97707                       # Number of cycles decode is squashing (Cycle)
system.cpu.decode.branchResolved              4157552                       # Number of times decode resolved a branch (Count)
system.cpu.decode.branchMispred                 12993                       # Number of times decode detected a branch misprediction (Count)
system.cpu.decode.decodedInsts               54583674                       # Number of instructions handled by decode (Count)
system.cpu.decode.squashedInsts                 30233                       # Number of squashed instructions handled by decode (Count)
system.cpu.fetch.icacheStallCycles            7201710                       # Number of cycles fetch is stalled on an Icache miss (Cycle)
system.cpu.fetch.insts                       50742846                       # Number of instructions fetch has processed (Count)
system.cpu.fetch.branches                     7500336                       # Number of branches that fetch encountered (Count)
system.cpu.fetch.predictedBranches            4859390                       # Number of branches that fetch has predicted taken (Count)
system.cpu.fetch.cycles                      14640112                       # Number of cycles fetch has run and was not squashing or blocked (Cycle)
system.cpu.fetch.squashCycles                  221358                       # Number of cycles fetch has spent squashing (Cycle)
system.cpu.fetch.miscStallCycles                   58                       # Number of cycles fetch has spent waiting on interrupts, or bad addresses, or out of MSHRs (Cycle)
system.cpu.fetch.icacheWaitRetryStallCycles           13                       # Number of stall cycles due to full MSHR (Cycle)
system.cpu.fetch.cacheLines                   6412783                       # Number of cache lines fetched (Count)
system.cpu.fetch.icacheSquashes                 47881                       # Number of outstanding Icache misses that were squashed (Count)
system.cpu.fetch.nisnDist::samples           21952572                       # Number of instructions fetched each cycle (Total) (Count)
system.cpu.fetch.nisnDist::mean              2.537318                       # Number of instructions fetched each cycle (Total) (Count)
system.cpu.fetch.nisnDist::stdev             3.132015                       # Number of instructions fetched each cycle (Total) (Count)
system.cpu.fetch.nisnDist::underflows               0      0.00%      0.00% # Number of instructions fetched each cycle (Total) (Count)
system.cpu.fetch.nisnDist::0                 10991158     50.07%     50.07% # Number of instructions fetched each cycle (Total) (Count)
system.cpu.fetch.nisnDist::1                  1121108      5.11%     55.17% # Number of instructions fetched each cycle (Total) (Count)
system.cpu.fetch.nisnDist::2                  1493520      6.80%     61.98% # Number of instructions fetched each cycle (Total) (Count)
system.cpu.fetch.nisnDist::3                  1090963      4.97%     66.95% # Number of instructions fetched each cycle (Total) (Count)
system.cpu.fetch.nisnDist::4                  1176301      5.36%     72.31% # Number of instructions fetched each cycle (Total) (Count)
system.cpu.fetch.nisnDist::5                   926740      4.22%     76.53% # Number of instructions fetched each cycle (Total) (Count)
system.cpu.fetch.nisnDist::6                   808120      3.68%     80.21% # Number of instructions fetched each cycle (Total) (Count)
system.cpu.fetch.nisnDist::7                   625296      2.85%     83.06% # Number of instructions fetched each cycle (Total) (Count)
system.cpu.fetch.nisnDist::8                  3719366     16.94%    100.00% # Number of instructions fetched each cycle (Total) (Count)
system.cpu.fetch.nisnDist::overflows                0      0.00%    100.00% # Number of instructions fetched each cycle (Total) (Count)
system.cpu.fetch.nisnDist::min_value                0                       # Number of instructions fetched each cycle (Total) (Count)
system.cpu.fetch.nisnDist::max_value                8                       # Number of instructions fetched each cycle (Total) (Count)
system.cpu.fetch.nisnDist::total             21952572                       # Number of instructions fetched each cycle (Total) (Count)
system.cpu.fetch.branchRate                  0.334704                       # Number of branch fetches per cycle (Ratio)
system.cpu.fetch.rate                        2.264409                       # Number of inst fetches per cycle ((Count/Cycle))
system.cpu.icache.demandHits::cpu.inst        6386890                       # number of demand (read+write) hits (Count)
system.cpu.icache.demandHits::total           6386890                       # number of demand (read+write) hits (Count)
system.cpu.icache.overallHits::cpu.inst       6386890                       # number of overall hits (Count)
system.cpu.icache.overallHits::total          6386890                       # number of overall hits (Count)
system.cpu.icache.demandMisses::cpu.inst        25892                       # number of demand (read+write) misses (Count)
system.cpu.icache.demandMisses::total           25892                       # number of demand (read+write) misses (Count)
system.cpu.icache.overallMisses::cpu.inst        25892                       # number of overall misses (Count)
system.cpu.icache.overallMisses::total          25892                       # number of overall misses (Count)
system.cpu.icache.demandMissLatency::cpu.inst    664579499                       # number of demand (read+write) miss ticks (Tick)
system.cpu.icache.demandMissLatency::total    664579499                       # number of demand (read+write) miss ticks (Tick)
system.cpu.icache.overallMissLatency::cpu.inst    664579499                       # number of overall miss ticks (Tick)
system.cpu.icache.overallMissLatency::total    664579499                       # number of overall miss ticks (Tick)
system.cpu.icache.demandAccesses::cpu.inst      6412782                       # number of demand (read+write) accesses (Count)
system.cpu.icache.demandAccesses::total       6412782                       # number of demand (read+write) accesses (Count)
system.cpu.icache.overallAccesses::cpu.inst      6412782                       # number of overall (read+write) accesses (Count)
system.cpu.icache.overallAccesses::total      6412782                       # number of overall (read+write) accesses (Count)
system.cpu.icache.demandMissRate::cpu.inst     0.004038                       # miss rate for demand accesses (Ratio)
system.cpu.icache.demandMissRate::total      0.004038                       # miss rate for demand accesses (Ratio)
system.cpu.icache.overallMissRate::cpu.inst     0.004038                       # miss rate for overall accesses (Ratio)
system.cpu.icache.overallMissRate::total     0.004038                       # miss rate for overall accesses (Ratio)
system.cpu.icache.demandAvgMissLatency::cpu.inst 25667.368260                       # average overall miss latency ((Cycle/Count))
system.cpu.icache.demandAvgMissLatency::total 25667.368260                       # average overall miss latency ((Cycle/Count))
system.cpu.icache.overallAvgMissLatency::cpu.inst 25667.368260                       # average overall miss latency ((Cycle/Count))
system.cpu.icache.overallAvgMissLatency::total 25667.368260                       # average overall miss latency ((Cycle/Count))
system.cpu.icache.blockedCycles::no_mshrs          724                       # number of cycles access was blocked (Cycle)
system.cpu.icache.blockedCycles::no_targets            0                       # number of cycles access was blocked (Cycle)
system.cpu.icache.blockedCauses::no_mshrs            9                       # number of times access was blocked (Count)
system.cpu.icache.blockedCauses::no_targets            0                       # number of times access was blocked (Count)
system.cpu.icache.avgBlocked::no_mshrs      80.444444                       # average number of cycles each access was blocked ((Cycle/Count))
system.cpu.icache.avgBlocked::no_targets          nan                       # average number of cycles each access was blocked ((Cycle/Count))
system.cpu.icache.writebacks::writebacks        25041                       # number of writebacks (Count)
system.cpu.icache.writebacks::total             25041                       # number of writebacks (Count)
system.cpu.icache.demandMshrHits::cpu.inst          374                       # number of demand (read+write) MSHR hits (Count)
system.cpu.icache.demandMshrHits::total           374                       # number of demand (read+write) MSHR hits (Count)
system.cpu.icache.overallMshrHits::cpu.inst          374                       # number of overall MSHR hits (Count)
system.cpu.icache.overallMshrHits::total          374                       # number of overall MSHR hits (Count)
system.cpu.icache.demandMshrMisses::cpu.inst        25518                       # number of demand (read+write) MSHR misses (Count)
system.cpu.icache.demandMshrMisses::total        25518                       # number of demand (read+write) MSHR misses (Count)
system.cpu.icache.overallMshrMisses::cpu.inst        25518                       # number of overall MSHR misses (Count)
system.cpu.icache.overallMshrMisses::total        25518                       # number of overall MSHR misses (Count)
system.cpu.icache.demandMshrMissLatency::cpu.inst    625074999                       # number of demand (read+write) MSHR miss ticks (Tick)
system.cpu.icache.demandMshrMissLatency::total    625074999                       # number of demand (read+write) MSHR miss ticks (Tick)
system.cpu.icache.overallMshrMissLatency::cpu.inst    625074999                       # number of overall MSHR miss ticks (Tick)
system.cpu.icache.overallMshrMissLatency::total    625074999                       # number of overall MSHR miss ticks (Tick)
system.cpu.icache.demandMshrMissRate::cpu.inst     0.003979                       # mshr miss ratio for demand accesses (Ratio)
system.cpu.icache.demandMshrMissRate::total     0.003979                       # mshr miss ratio for demand accesses (Ratio)
system.cpu.icache.overallMshrMissRate::cpu.inst     0.003979                       # mshr miss ratio for overall accesses (Ratio)
system.cpu.icache.overallMshrMissRate::total     0.003979                       # mshr miss ratio for overall accesses (Ratio)
system.cpu.icache.demandAvgMshrMissLatency::cpu.inst 24495.454150                       # average overall mshr miss latency ((Cycle/Count))
system.cpu.icache.demandAvgMshrMissLatency::total 24495.454150                       # average overall mshr miss latency ((Cycle/Count))
system.cpu.icache.overallAvgMshrMissLatency::cpu.inst 24495.454150                       # average overall mshr miss latency ((Cycle/Count))
system.cpu.icache.overallAvgMshrMissLatency::total 24495.454150                       # average overall mshr miss latency ((Cycle/Count))
system.cpu.icache.replacements                  25041                       # number of replacements (Count)
system.cpu.icache.ReadReq.hits::cpu.inst      6386890                       # number of ReadReq hits (Count)
system.cpu.icache.ReadReq.hits::total         6386890                       # number of ReadReq hits (Count)
system.cpu.icache.ReadReq.misses::cpu.inst        25892                       # number of ReadReq misses (Count)
system.cpu.icache.ReadReq.misses::total         25892                       # number of ReadReq misses (Count)
system.cpu.icache.ReadReq.missLatency::cpu.inst    664579499                       # number of ReadReq miss ticks (Tick)
system.cpu.icache.ReadReq.missLatency::total    664579499                       # number of ReadReq miss ticks (Tick)
system.cpu.icache.ReadReq.accesses::cpu.inst      6412782                       # number of ReadReq accesses(hits+misses) (Count)
system.cpu.icache.ReadReq.accesses::total      6412782                       # number of ReadReq accesses(hits+misses) (Count)
system.cpu.icache.ReadReq.missRate::cpu.inst     0.004038                       # miss rate for ReadReq accesses (Ratio)
system.cpu.icache.ReadReq.missRate::total     0.004038                       # miss rate for ReadReq accesses (Ratio)
system.cpu.icache.ReadReq.avgMissLatency::cpu.inst 25667.368260                       # average ReadReq miss latency ((Tick/Count))
system.cpu.icache.ReadReq.avgMissLatency::total 25667.368260                       # average ReadReq miss latency ((Tick/Count))
system.cpu.icache.ReadReq.mshrHits::cpu.inst          374                       # number of ReadReq MSHR hits (Count)
system.cpu.icache.ReadReq.mshrHits::total          374                       # number of ReadReq MSHR hits (Count)
system.cpu.icache.ReadReq.mshrMisses::cpu.inst        25518                       # number of ReadReq MSHR misses (Count)
system.cpu.icache.ReadReq.mshrMisses::total        25518                       # number of ReadReq MSHR misses (Count)
system.cpu.icache.ReadReq.mshrMissLatency::cpu.inst    625074999                       # number of ReadReq MSHR miss ticks (Tick)
system.cpu.icache.ReadReq.mshrMissLatency::total    625074999                       # number of ReadReq MSHR miss ticks (Tick)
system.cpu.icache.ReadReq.mshrMissRate::cpu.inst     0.003979                       # mshr miss rate for ReadReq accesses (Ratio)
system.cpu.icache.ReadReq.mshrMissRate::total     0.003979                       # mshr miss rate for ReadReq accesses (Ratio)
system.cpu.icache.ReadReq.avgMshrMissLatency::cpu.inst 24495.454150                       # average ReadReq mshr miss latency ((Tick/Count))
system.cpu.icache.ReadReq.avgMshrMissLatency::total 24495.454150                       # average ReadReq mshr miss latency ((Tick/Count))
system.cpu.icache.power_state.pwrStateResidencyTicks::UNDEFINED  11204432500                       # Cumulative time (in ticks) in various power states (Tick)
system.cpu.icache.tags.tagsInUse           407.435907                       # Average ticks per tags in use ((Tick/Count))
system.cpu.icache.tags.totalRefs              6412407                       # Total number of references to valid blocks. (Count)
system.cpu.icache.tags.sampledRefs              25517                       # Sample count of references to valid blocks. (Count)
system.cpu.icache.tags.avgRefs             251.299408                       # Average number of references to valid blocks. ((Count/Count))
system.cpu.icache.tags.warmupTick               77000                       # The tick when the warmup percentage was hit. (Tick)
system.cpu.icache.tags.occupancies::cpu.inst   407.435907                       # Average occupied blocks per tick, per requestor ((Count/Tick))
system.cpu.icache.tags.avgOccs::cpu.inst     0.795773                       # Average percentage of cache occupancy ((Ratio/Tick))
system.cpu.icache.tags.avgOccs::total        0.795773                       # Average percentage of cache occupancy ((Ratio/Tick))
system.cpu.icache.tags.occupanciesTaskId::1024          476                       # Occupied blocks per task id (Count)
system.cpu.icache.tags.ageTaskId_1024::0          128                       # Occupied blocks per task id, per block age (Count)
system.cpu.icache.tags.ageTaskId_1024::1           27                       # Occupied blocks per task id, per block age (Count)
system.cpu.icache.tags.ageTaskId_1024::2            1                       # Occupied blocks per task id, per block age (Count)
system.cpu.icache.tags.ageTaskId_1024::3          176                       # Occupied blocks per task id, per block age (Count)
system.cpu.icache.tags.ageTaskId_1024::4          144                       # Occupied blocks per task id, per block age (Count)
system.cpu.icache.tags.ratioOccsTaskId::1024     0.929688                       # Ratio of occupied blocks and all blocks, per task id (Ratio)
system.cpu.icache.tags.tagAccesses           12851081                       # Number of tag accesses (Count)
system.cpu.icache.tags.dataAccesses          12851081                       # Number of data accesses (Count)
system.cpu.icache.tags.power_state.pwrStateResidencyTicks::UNDEFINED  11204432500                       # Cumulative time (in ticks) in various power states (Tick)
system.cpu.iew.idleCycles                           0                       # Number of cycles IEW is idle (Cycle)
system.cpu.iew.squashCycles                     97707                       # Number of cycles IEW is squashing (Cycle)
system.cpu.iew.blockCycles                     685663                       # Number of cycles IEW is blocking (Cycle)
system.cpu.iew.unblockCycles                   384135                       # Number of cycles IEW is unblocking (Cycle)
system.cpu.iew.dispatchedInsts               53718928                       # Number of instructions dispatched to IQ (Count)
system.cpu.iew.dispSquashedInsts                14287                       # Number of squashed instructions skipped by dispatch (Count)
system.cpu.iew.dispLoadInsts                 11478418                       # Number of dispatched load instructions (Count)
system.cpu.iew.dispStoreInsts                 5622340                       # Number of dispatched store instructions (Count)
system.cpu.iew.dispNonSpecInsts                  4206                       # Number of dispatched non-speculative instructions (Count)
system.cpu.iew.iqFullEvents                     52267                       # Number of times the IQ has become full, causing a stall (Count)
system.cpu.iew.lsqFullEvents                   318509                       # Number of times the LSQ has become full, causing a stall (Count)
system.cpu.iew.memOrderViolationEvents            742                       # Number of memory order violations (Count)
system.cpu.iew.predictedTakenIncorrect          38465                       # Number of branches that were predicted taken incorrectly (Count)
system.cpu.iew.predictedNotTakenIncorrect        55742                       # Number of branches that were predicted not taken incorrectly (Count)
system.cpu.iew.branchMispredicts                94207                       # Number of branch mispredicts detected at execute (Count)
[...]
system.mem_ctrls.dram.bwRead::cpu.inst      145753745                       # Total read bandwidth from this memory ((Byte/Second))
system.mem_ctrls.dram.bwRead::cpu.data       69121216                       # Total read bandwidth from this memory ((Byte/Second))
system.mem_ctrls.dram.bwRead::total         214874961                       # Total read bandwidth from this memory ((Byte/Second))
system.mem_ctrls.dram.bwInstRead::cpu.inst    145753745                       # Instruction read bandwidth from this memory ((Byte/Second))
system.mem_ctrls.dram.bwInstRead::total     145753745                       # Instruction read bandwidth from this memory ((Byte/Second))
system.mem_ctrls.dram.bwWrite::writebacks     44062562                       # Write bandwidth from this memory ((Byte/Second))
system.mem_ctrls.dram.bwWrite::total         44062562                       # Write bandwidth from this memory ((Byte/Second))
system.mem_ctrls.dram.bwTotal::writebacks     44062562                       # Total bandwidth to/from this memory ((Byte/Second))
system.mem_ctrls.dram.bwTotal::cpu.inst     145753745                       # Total bandwidth to/from this memory ((Byte/Second))
system.mem_ctrls.dram.bwTotal::cpu.data      69121216                       # Total bandwidth to/from this memory ((Byte/Second))
system.mem_ctrls.dram.bwTotal::total        258937523                       # Total bandwidth to/from this memory ((Byte/Second))
system.mem_ctrls.dram.readBursts                12757                       # Number of DRAM read bursts (Count)
system.mem_ctrls.dram.writeBursts                8093                       # Number of DRAM write bursts (Count)
system.mem_ctrls.dram.perBankRdBursts::0          819                       # Per bank write bursts (Count)
system.mem_ctrls.dram.perBankRdBursts::1          867                       # Per bank write bursts (Count)
system.mem_ctrls.dram.perBankRdBursts::2          696                       # Per bank write bursts (Count)
system.mem_ctrls.dram.perBankRdBursts::3          395                       # Per bank write bursts (Count)
system.mem_ctrls.dram.perBankRdBursts::4          795                       # Per bank write bursts (Count)
system.mem_ctrls.dram.perBankRdBursts::5         1090                       # Per bank write bursts (Count)
system.mem_ctrls.dram.perBankRdBursts::6          966                       # Per bank write bursts (Count)
system.mem_ctrls.dram.perBankRdBursts::7          912                       # Per bank write bursts (Count)
system.mem_ctrls.dram.perBankRdBursts::8          988                       # Per bank write bursts (Count)
system.mem_ctrls.dram.perBankRdBursts::9          890                       # Per bank write bursts (Count)
system.mem_ctrls.dram.perBankRdBursts::10          746                       # Per bank write bursts (Count)
system.mem_ctrls.dram.perBankRdBursts::11          804                       # Per bank write bursts (Count)
system.mem_ctrls.dram.perBankRdBursts::12          739                       # Per bank write bursts (Count)
system.mem_ctrls.dram.perBankRdBursts::13          599                       # Per bank write bursts (Count)
system.mem_ctrls.dram.perBankRdBursts::14          683                       # Per bank write bursts (Count)
system.mem_ctrls.dram.perBankRdBursts::15          768                       # Per bank write bursts (Count)
system.mem_ctrls.dram.perBankWrBursts::0          508                       # Per bank write bursts (Count)
system.mem_ctrls.dram.perBankWrBursts::1          505                       # Per bank write bursts (Count)
system.mem_ctrls.dram.perBankWrBursts::2          450                       # Per bank write bursts (Count)
system.mem_ctrls.dram.perBankWrBursts::3          224                       # Per bank write bursts (Count)
system.mem_ctrls.dram.perBankWrBursts::4          420                       # Per bank write bursts (Count)
system.mem_ctrls.dram.perBankWrBursts::5          580                       # Per bank write bursts (Count)
system.mem_ctrls.dram.perBankWrBursts::6          538                       # Per bank write bursts (Count)
system.mem_ctrls.dram.perBankWrBursts::7          515                       # Per bank write bursts (Count)
system.mem_ctrls.dram.perBankWrBursts::8          530                       # Per bank write bursts (Count)
system.mem_ctrls.dram.perBankWrBursts::9          529                       # Per bank write bursts (Count)
system.mem_ctrls.dram.perBankWrBursts::10          497                       # Per bank write bursts (Count)
system.mem_ctrls.dram.perBankWrBursts::11          561                       # Per bank write bursts (Count)
system.mem_ctrls.dram.perBankWrBursts::12          518                       # Per bank write bursts (Count)
system.mem_ctrls.dram.perBankWrBursts::13          563                       # Per bank write bursts (Count)
system.mem_ctrls.dram.perBankWrBursts::14          545                       # Per bank write bursts (Count)
system.mem_ctrls.dram.perBankWrBursts::15          610                       # Per bank write bursts (Count)
system.mem_ctrls.dram.totQLat               118886250                       # Total ticks spent queuing (Tick)
system.mem_ctrls.dram.totBusLat              63785000                       # Total ticks spent in databus transfers (Tick)
system.mem_ctrls.dram.totMemAccLat          358080000                       # Total ticks spent from burst creation until serviced by the DRAM (Tick)
system.mem_ctrls.dram.avgQLat                 9319.30                       # Average queueing delay per DRAM burst ((Tick/Count))
system.mem_ctrls.dram.avgBusLat               5000.00                       # Average bus latency per DRAM burst ((Tick/Count))
system.mem_ctrls.dram.avgMemAccLat           28069.30                       # Average memory access latency per DRAM burst ((Tick/Count))
system.mem_ctrls.dram.readRowHits               10358                       # Number of row buffer hits during reads (Count)
system.mem_ctrls.dram.writeRowHits               6992                       # Number of row buffer hits during writes (Count)
system.mem_ctrls.dram.readRowHitRate            81.19                       # Row buffer hit rate for reads (Ratio)
system.mem_ctrls.dram.writeRowHitRate           86.40                       # Row buffer hit rate for writes (Ratio)
system.mem_ctrls.dram.bytesPerActivate::samples         3500                       # Bytes accessed per row activation (Byte)
system.mem_ctrls.dram.bytesPerActivate::mean   381.257143                       # Bytes accessed per row activation (Byte)
system.mem_ctrls.dram.bytesPerActivate::gmean   249.457772                       # Bytes accessed per row activation (Byte)
system.mem_ctrls.dram.bytesPerActivate::stdev   324.130094                       # Bytes accessed per row activation (Byte)
system.mem_ctrls.dram.bytesPerActivate::0-127          813     23.23%     23.23% # Bytes accessed per row activation (Byte)
system.mem_ctrls.dram.bytesPerActivate::128-255          790     22.57%     45.80% # Bytes accessed per row activation (Byte)
system.mem_ctrls.dram.bytesPerActivate::256-383          459     13.11%     58.91% # Bytes accessed per row activation (Byte)
system.mem_ctrls.dram.bytesPerActivate::384-511          217      6.20%     65.11% # Bytes accessed per row activation (Byte)
system.mem_ctrls.dram.bytesPerActivate::512-639          477     13.63%     78.74% # Bytes accessed per row activation (Byte)
system.mem_ctrls.dram.bytesPerActivate::640-767          134      3.83%     82.57% # Bytes accessed per row activation (Byte)
system.mem_ctrls.dram.bytesPerActivate::768-895          116      3.31%     85.89% # Bytes accessed per row activation (Byte)
system.mem_ctrls.dram.bytesPerActivate::896-1023           81      2.31%     88.20% # Bytes accessed per row activation (Byte)
system.mem_ctrls.dram.bytesPerActivate::1024-1151          413     11.80%    100.00% # Bytes accessed per row activation (Byte)
system.mem_ctrls.dram.bytesPerActivate::total         3500                       # Bytes accessed per row activation (Byte)
system.mem_ctrls.dram.bytesRead                816448                       # Total bytes read (Byte)
system.mem_ctrls.dram.bytesWritten             517952                       # Total bytes written (Byte)
system.mem_ctrls.dram.avgRdBW               72.868305                       # Average DRAM read bandwidth in MiBytes/s ((Byte/Second))
system.mem_ctrls.dram.avgWrBW               46.227419                       # Average DRAM write bandwidth in MiBytes/s ((Byte/Second))
system.mem_ctrls.dram.peakBW                 12800.00                       # Theoretical peak bandwidth in MiByte/s ((Byte/Second))
system.mem_ctrls.dram.busUtil                    0.93                       # Data bus utilization in percentage (Ratio)
system.mem_ctrls.dram.busUtilRead                0.57                       # Data bus utilization in percentage for reads (Ratio)
system.mem_ctrls.dram.busUtilWrite               0.36                       # Data bus utilization in percentage for writes (Ratio)
system.mem_ctrls.dram.pageHitRate               83.21                       # Row buffer hit rate, read and write combined (Ratio)
system.mem_ctrls.dram.power_state.pwrStateResidencyTicks::UNDEFINED  11204432500                       # Cumulative time (in ticks) in various power states (Tick)
system.mem_ctrls.dram.rank0.actEnergy        12580680                       # Energy for activate commands per rank (pJ) (Joule)
system.mem_ctrls.dram.rank0.preEnergy         6686790                       # Energy for precharge commands per rank (pJ) (Joule)
system.mem_ctrls.dram.rank0.readEnergy       46695600                       # Energy for read commands per rank (pJ) (Joule)
system.mem_ctrls.dram.rank0.writeEnergy      19522800                       # Energy for write commands per rank (pJ) (Joule)
system.mem_ctrls.dram.rank0.refreshEnergy 884466960.000000                       # Energy for refresh commands per rank (pJ) (Joule)
system.mem_ctrls.dram.rank0.actBackEnergy   1905845730                       # Energy for active background per rank (pJ) (Joule)
system.mem_ctrls.dram.rank0.preBackEnergy   2697672000                       # Energy for precharge background per rank (pJ) (Joule)
system.mem_ctrls.dram.rank0.actPowerDownEnergy            0                       # Energy for active power-down per rank (pJ) (Joule)
system.mem_ctrls.dram.rank0.prePowerDownEnergy            0                       # Energy for precharge power-down per rank (pJ) (Joule)
system.mem_ctrls.dram.rank0.selfRefreshEnergy            0                       # Energy for self refresh per rank (pJ) (Joule)
system.mem_ctrls.dram.rank0.totalEnergy    5573470560                       # Total energy per rank (pJ) (Joule)
system.mem_ctrls.dram.rank0.averagePower   497.434436                       # Core power per rank (mW) (Watt)
system.mem_ctrls.dram.rank0.totalIdleTime            0                       # Total Idle time Per DRAM Rank (Tick)
system.mem_ctrls.dram.rank0.pwrStateTime::IDLE   6995356250                       # Time in different power states (Tick)
system.mem_ctrls.dram.rank0.pwrStateTime::REF    373885000                       # Time in different power states (Tick)
system.mem_ctrls.dram.rank0.pwrStateTime::SREF            0                       # Time in different power states (Tick)
system.mem_ctrls.dram.rank0.pwrStateTime::PRE_PDN            0                       # Time in different power states (Tick)
system.mem_ctrls.dram.rank0.pwrStateTime::ACT   3835191250                       # Time in different power states (Tick)
system.mem_ctrls.dram.rank0.pwrStateTime::ACT_PDN            0                       # Time in different power states (Tick)
system.mem_ctrls.dram.rank1.actEnergy        12409320                       # Energy for activate commands per rank (pJ) (Joule)
system.mem_ctrls.dram.rank1.preEnergy         6595710                       # Energy for precharge commands per rank (pJ) (Joule)
system.mem_ctrls.dram.rank1.readEnergy       44389380                       # Energy for read commands per rank (pJ) (Joule)
system.mem_ctrls.dram.rank1.writeEnergy      22722660                       # Energy for write commands per rank (pJ) (Joule)
system.mem_ctrls.dram.rank1.refreshEnergy 884466960.000000                       # Energy for refresh commands per rank (pJ) (Joule)
system.mem_ctrls.dram.rank1.actBackEnergy   1901593530                       # Energy for active background per rank (pJ) (Joule)
system.mem_ctrls.dram.rank1.preBackEnergy   2701252800                       # Energy for precharge background per rank (pJ) (Joule)
system.mem_ctrls.dram.rank1.actPowerDownEnergy            0                       # Energy for active power-down per rank (pJ) (Joule)
system.mem_ctrls.dram.rank1.prePowerDownEnergy            0                       # Energy for precharge power-down per rank (pJ) (Joule)
system.mem_ctrls.dram.rank1.selfRefreshEnergy            0                       # Energy for self refresh per rank (pJ) (Joule)
system.mem_ctrls.dram.rank1.totalEnergy    5573430360                       # Total energy per rank (pJ) (Joule)
system.mem_ctrls.dram.rank1.averagePower   497.430848                       # Core power per rank (mW) (Watt)
system.mem_ctrls.dram.rank1.totalIdleTime            0                       # Total Idle time Per DRAM Rank (Tick)
system.mem_ctrls.dram.rank1.pwrStateTime::IDLE   7002752000                       # Time in different power states (Tick)
system.mem_ctrls.dram.rank1.pwrStateTime::REF    373885000                       # Time in different power states (Tick)
system.mem_ctrls.dram.rank1.pwrStateTime::SREF            0                       # Time in different power states (Tick)
system.mem_ctrls.dram.rank1.pwrStateTime::PRE_PDN            0                       # Time in different power states (Tick)
system.mem_ctrls.dram.rank1.pwrStateTime::ACT   3827795500                       # Time in different power states (Tick)
system.mem_ctrls.dram.rank1.pwrStateTime::ACT_PDN            0                       # Time in different power states (Tick)
system.mem_ctrls.power_state.pwrStateResidencyTicks::UNDEFINED  11204432500                       # Cumulative time (in ticks) in various power states (Tick)
system.membus.transDist::ReadResp               35890                       # Transaction distribution (Count)
system.membus.transDist::WritebackDirty          7714                       # Transaction distribution (Count)
system.membus.transDist::WritebackClean         25041                       # Transaction distribution (Count)
system.membus.transDist::CleanEvict              4917                       # Transaction distribution (Count)
system.membus.transDist::ReadExReq               1728                       # Transaction distribution (Count)
system.membus.transDist::ReadExResp              1728                       # Transaction distribution (Count)
system.membus.transDist::ReadCleanReq           25518                       # Transaction distribution (Count)
system.membus.transDist::ReadSharedReq          10373                       # Transaction distribution (Count)
system.membus.transDist::InvalidateReq           1554                       # Transaction distribution (Count)
system.membus.pktCount_system.cpu.icache.mem_side_port::system.mem_ctrls.port        76076                       # Packet count per connected requestor and responder (Count)
system.membus.pktCount_system.cpu.dcache.mem_side_port::system.mem_ctrls.port        38387                       # Packet count per connected requestor and responder (Count)
system.membus.pktCount::total                  114463                       # Packet count per connected requestor and responder (Count)
system.membus.pktSize_system.cpu.icache.mem_side_port::system.mem_ctrls.port      3235712                       # Cumulative packet size per connected requestor and responder (Byte)
system.membus.pktSize_system.cpu.dcache.mem_side_port::system.mem_ctrls.port      1268160                       # Cumulative packet size per connected requestor and responder (Byte)
system.membus.pktSize::total                  4503872                       # Cumulative packet size per connected requestor and responder (Byte)
system.membus.snoops                                0                       # Total snoops (Count)
system.membus.snoopTraffic                          0                       # Total snoop traffic (Byte)
system.membus.snoopFanout::samples              39173                       # Request fanout histogram (Count)
system.membus.snoopFanout::mean              0.000077                       # Request fanout histogram (Count)
system.membus.snoopFanout::stdev             0.008751                       # Request fanout histogram (Count)
system.membus.snoopFanout::underflows               0      0.00%      0.00% # Request fanout histogram (Count)
system.membus.snoopFanout::0                    39170     99.99%     99.99% # Request fanout histogram (Count)
system.membus.snoopFanout::1                        3      0.01%    100.00% # Request fanout histogram (Count)
system.membus.snoopFanout::2                        0      0.00%    100.00% # Request fanout histogram (Count)
system.membus.snoopFanout::overflows                0      0.00%    100.00% # Request fanout histogram (Count)
system.membus.snoopFanout::min_value                0                       # Request fanout histogram (Count)
system.membus.snoopFanout::max_value                1                       # Request fanout histogram (Count)
system.membus.snoopFanout::total                39173                       # Request fanout histogram (Count)
system.membus.power_state.pwrStateResidencyTicks::UNDEFINED  11204432500                       # Cumulative time (in ticks) in various power states (Tick)
system.membus.reqLayer0.occupancy           216058000                       # Layer occupancy (ticks) (Tick)
system.membus.reqLayer0.utilization               0.0                       # Layer utilization (Ratio)
system.membus.respLayer1.occupancy          127885000                       # Layer occupancy (ticks) (Tick)
system.membus.respLayer1.utilization              0.0                       # Layer utilization (Ratio)
system.membus.respLayer2.occupancy           64080500                       # Layer occupancy (ticks) (Tick)
system.membus.respLayer2.utilization              0.0                       # Layer utilization (Ratio)
system.membus.snoop_filter.totRequests          76845                       # Total number of requests made to the snoop filter. (Count)
system.membus.snoop_filter.hitSingleRequests        37673                       # Number of requests hitting in the snoop filter with a single holder of the requested data. (Count)
system.membus.snoop_filter.hitMultiRequests            2                       # Number of requests hitting in the snoop filter with multiple (>1) holders of the requested data. (Count)
system.membus.snoop_filter.totSnoops                0                       # Total number of snoops made to the snoop filter. (Count)
system.membus.snoop_filter.hitSingleSnoops            0                       # Number of snoops hitting in the snoop filter with a single holder of the requested data. (Count)
system.membus.snoop_filter.hitMultiSnoops            0                       # Number of snoops hitting in the snoop filter with multiple (>1) holders of the requested data. (Count)
system.voltage_domain.voltage                       1                       # Voltage in Volts (Volt)
system.workload.inst.arm                            0                       # number of arm instructions executed (Count)
system.workload.inst.quiesce                        0                       # number of quiesce instructions executed (Count)

---------- End Simulation Statistics   ----------
