
---------- Begin Simulation Statistics ----------
simSeconds                                   0.028694                       # Number of seconds simulated (Second)
simTicks                                  28693781000                       # Number of ticks simulated (Tick)
finalTick                                 28693781000                       # Number of ticks from beginning of simulation (restored from checkpoints and never reset) (Tick)
simFreq                                  1000000000000                       # The number of ticks per simulated second ((Tick/Second))
hostSeconds                                     85.06                       # Real time elapsed on the host (Second)
hostTickRate                                337346147                       # The number of ticks simulated per host second (ticks/s) ((Tick/Second))
hostMemory                                     672204                       # Number of bytes of host memory used (Byte)
simInsts                                     46326279                       # Number of instructions simulated (Count)
simOps                                       50666649                       # Number of ops (including micro ops) simulated (Count)
hostInstRate                                   544647                       # Simulator instruction rate (inst/s) ((Count/Second))
hostOpRate                                     595676                       # Simulator op (including micro ops) rate (op/s) ((Count/Second))
system.clk_domain.clock                          1000                       # Clock period in ticks (Tick)
system.cpu.numCycles                         57387565                       # Number of cpu cycles simulated (Cycle)
system.cpu.numWorkItemsStarted                      0                       # Number of work items this cpu started (Count)
system.cpu.numWorkItemsCompleted                    0                       # Number of work items this cpu completed (Count)
system.cpu.instsAdded                        54200188                       # Number of instructions added to the IQ (excludes non-spec) (Count)
system.cpu.nonSpecInstsAdded                     4231                       # Number of non-speculative instructions added to the IQ (Count)
system.cpu.instsIssued                       54451067                       # Number of instructions issued (Count)
system.cpu.squashedInstsIssued                  57381                       # Number of squashed instructions issued (Count)
system.cpu.squashedInstsExamined              3537769                       # Number of squashed instructions iterated over during squash; mainly for profiling (Count)
system.cpu.squashedOperandsExamined           2934093                       # Number of squashed operands that are examined and possibly removed from graph (Count)
system.cpu.squashedNonSpecRemoved                  60                       # Number of squashed non-spec instructions that were removed (Count)
system.cpu.numIssuedDist::samples            56138283                       # Number of insts issued each cycle (Count)
system.cpu.numIssuedDist::mean               0.969945                       # Number of insts issued each cycle (Count)
system.cpu.numIssuedDist::stdev              1.714080                       # Number of insts issued each cycle (Count)
system.cpu.numIssuedDist::underflows                0      0.00%      0.00% # Number of insts issued each cycle (Count)
system.cpu.numIssuedDist::0                  37308174     66.46%     66.46% # Number of insts issued each cycle (Count)
system.cpu.numIssuedDist::1                   5299379      9.44%     75.90% # Number of insts issued each cycle (Count)
system.cpu.numIssuedDist::2                   4218374      7.51%     83.41% # Number of insts issued each cycle (Count)
system.cpu.numIssuedDist::3                   3227311      5.75%     89.16% # Number of insts issued each cycle (Count)
system.cpu.numIssuedDist::4                   2459296      4.38%     93.54% # Number of insts issued each cycle (Count)
system.cpu.numIssuedDist::5                   1685276      3.00%     96.54% # Number of insts issued each cycle (Count)
system.cpu.numIssuedDist::6                   1089109      1.94%     98.48% # Number of insts issued each cycle (Count)
system.cpu.numIssuedDist::7                    576123      1.03%     99.51% # Number of insts issued each cycle (Count)
system.cpu.numIssuedDist::8                    275241      0.49%    100.00% # Number of insts issued each cycle (Count)
system.cpu.numIssuedDist::overflows                 0      0.00%    100.00% # Number of insts issued each cycle (Count)
system.cpu.numIssuedDist::min_value                 0                       # Number of insts issued each cycle (Count)
system.cpu.numIssuedDist::max_value                 8                       # Number of insts issued each cycle (Count)
system.cpu.numIssuedDist::total              56138283                       # Number of insts issued each cycle (Count)
system.cpu.statFuBusy::No_OpClass                   0      0.00%      0.00% # attempts to use FU when none available (Count)
system.cpu.statFuBusy::IntAlu                  391804     39.88%     39.88% # attempts to use FU when none available (Count)
system.cpu.statFuBusy::IntMult                  81431      8.29%     48.16% # attempts to use FU when none available (Count)
system.cpu.statFuBusy::IntDiv                       0      0.00%     48.16% # attempts to use FU when none available (Count)
system.cpu.statFuBusy::FloatAdd                     0      0.00%     48.16% # attempts to use FU when none available (Count)
system.cpu.statFuBusy::FloatCmp                     0      0.00%     48.16% # attempts to use FU when none available (Count)
system.cpu.statFuBusy::FloatCvt                     0      0.00%     48.16% # attempts to use FU when none available (Count)
system.cpu.statFuBusy::FloatMult                    0      0.00%     48.16% # attempts to use FU when none available (Count)
system.cpu.statFuBusy::FloatMultAcc                 0      0.00%     48.16% # attempts to use FU when none available (Count)
system.cpu.statFuBusy::FloatDiv                     0      0.00%     48.16% # attempts to use FU when none available (Count)
system.cpu.statFuBusy::FloatMisc                    0      0.00%     48.16% # attempts to use FU when none available (Count)
system.cpu.statFuBusy::FloatSqrt                    0      0.00%     48.16% # attempts to use FU when none available (Count)
system.cpu.statFuBusy::SimdAdd                      0      0.00%     48.16% # attempts to use FU when none available (Count)
system.cpu.statFuBusy::SimdAddAcc                   0      0.00%     48.16% # attempts to use FU when none available (Count)
system.cpu.statFuBusy::SimdAlu                   3731      0.38%     48.54% # attempts to use FU when none available (Count)
system.cpu.statFuBusy::SimdCmp                    400      0.04%     48.59% # attempts to use FU when none available (Count)
system.cpu.statFuBusy::SimdCvt                      0      0.00%     48.59% # attempts to use FU when none available (Count)
system.cpu.statFuBusy::SimdMisc                     0      0.00%     48.59% # attempts to use FU when none available (Count)
system.cpu.statFuBusy::SimdMult                     0      0.00%     48.59% # attempts to use FU when none available (Count)
system.cpu.statFuBusy::SimdMultAcc                  0      0.00%     48.59% # attempts to use FU when none available (Count)
system.cpu.statFuBusy::SimdShift                    0      0.00%     48.59% # attempts to use FU when none available (Count)
system.cpu.statFuBusy::SimdShiftAcc                 0      0.00%     48.59% # attempts to use FU when none available (Count)
system.cpu.statFuBusy::SimdDiv                      0      0.00%     48.59% # attempts to use FU when none available (Count)
system.cpu.statFuBusy::SimdSqrt                     0      0.00%     48.59% # attempts to use FU when none available (Count)
system.cpu.statFuBusy::SimdFloatAdd                 0      0.00%     48.59% # attempts to use FU when none available (Count)
system.cpu.statFuBusy::SimdFloatAlu                 0      0.00%     48.59% # attempts to use FU when none available (Count)
system.cpu.statFuBusy::SimdFloatCmp                 0      0.00%     48.59% # attempts to use FU when none available (Count)
system.cpu.statFuBusy::SimdFloatCvt                 0      0.00%     48.59% # attempts to use FU when none available (Count)
system.cpu.statFuBusy::SimdFloatDiv                 0      0.00%     48.59% # attempts to use FU when none available (Count)
system.cpu.statFuBusy::SimdFloatMisc                0      0.00%     48.59% # attempts to use FU when none available (Count)
system.cpu.statFuBusy::SimdFloatMult                0      0.00%     48.59% # attempts to use FU when none available (Count)
system.cpu.statFuBusy::SimdFloatMultAcc             0      0.00%     48.59% # attempts to use FU when none available (Count)
system.cpu.statFuBusy::SimdFloatSqrt                0      0.00%     48.59% # attempts to use FU when none available (Count)
system.cpu.statFuBusy::SimdReduceAdd                0      0.00%     48.59% # attempts to use FU when none available (Count)
system.cpu.statFuBusy::SimdReduceAlu                0      0.00%     48.59% # attempts to use FU when none available (Count)
system.cpu.statFuBusy::SimdReduceCmp                0      0.00%     48.59% # attempts to use FU when none available (Count)
system.cpu.statFuBusy::SimdFloatReduceAdd            0      0.00%     48.59% # attempts to use FU when none available (Count)
system.cpu.statFuBusy::SimdFloatReduceCmp            0      0.00%     48.59% # attempts to use FU when none available (Count)
system.cpu.statFuBusy::SimdAes                      0      0.00%     48.59% # attempts to use FU when none available (Count)
system.cpu.statFuBusy::SimdAesMix                   0      0.00%     48.59% # attempts to use FU when none available (Count)
system.cpu.statFuBusy::SimdSha1Hash                 0      0.00%     48.59% # attempts to use FU when none available (Count)
system.cpu.statFuBusy::SimdSha1Hash2                0      0.00%     48.59% # attempts to use FU when none available (Count)
system.cpu.statFuBusy::SimdSha256Hash               0      0.00%     48.59% # attempts to use FU when none available (Count)
system.cpu.statFuBusy::SimdSha256Hash2              0      0.00%     48.59% # attempts to use FU when none available (Count)
system.cpu.statFuBusy::SimdShaSigma2                0      0.00%     48.59% # attempts to use FU when none available (Count)
system.cpu.statFuBusy::SimdShaSigma3                0      0.00%     48.59% # attempts to use FU when none available (Count)
system.cpu.statFuBusy::SimdPredAlu                  0      0.00%     48.59% # attempts to use FU when none available (Count)
system.cpu.statFuBusy::MemRead                 404486     41.17%     89.75% # attempts to use FU when none available (Count)
system.cpu.statFuBusy::MemWrite                100684     10.25%    100.00% # attempts to use FU when none available (Count)
system.cpu.statFuBusy::FloatMemRead                 0      0.00%    100.00% # attempts to use FU when none available (Count)
system.cpu.statFuBusy::FloatMemWrite                0      0.00%    100.00% # attempts to use FU when none available (Count)
system.cpu.statFuBusy::IprAccess                    0      0.00%    100.00% # attempts to use FU when none available (Count)
system.cpu.statFuBusy::InstPrefetch                 0      0.00%    100.00% # attempts to use FU when none available (Count)
system.cpu.statIssuedInstType_0::No_OpClass        27853      0.05%      0.05% # Number of instructions issued per FU type, per thread (Count)
system.cpu.statIssuedInstType_0::IntAlu      34086771     62.60%     62.65% # Number of instructions issued per FU type, per thread (Count)
system.cpu.statIssuedInstType_0::IntMult       641435      1.18%     63.83% # Number of instructions issued per FU type, per thread (Count)
system.cpu.statIssuedInstType_0::IntDiv        154736      0.28%     64.11% # Number of instructions issued per FU type, per thread (Count)
system.cpu.statIssuedInstType_0::FloatAdd       278538      0.51%     64.63% # Number of instructions issued per FU type, per thread (Count)
system.cpu.statIssuedInstType_0::FloatCmp        16389      0.03%     64.66% # Number of instructions issued per FU type, per thread (Count)
system.cpu.statIssuedInstType_0::FloatCvt            0      0.00%     64.66% # Number of instructions issued per FU type, per thread (Count)
system.cpu.statIssuedInstType_0::FloatMult       262145      0.48%     65.14% # Number of instructions issued per FU type, per thread (Count)
system.cpu.statIssuedInstType_0::FloatMultAcc            0      0.00%     65.14% # Number of instructions issued per FU type, per thread (Count)
system.cpu.statIssuedInstType_0::FloatDiv            0      0.00%     65.14% # Number of instructions issued per FU type, per thread (Count)
system.cpu.statIssuedInstType_0::FloatMisc        61295      0.11%     65.25% # Number of instructions issued per FU type, per thread (Count)
system.cpu.statIssuedInstType_0::FloatSqrt            0      0.00%     65.25% # Number of instructions issued per FU type, per thread (Count)
system.cpu.statIssuedInstType_0::SimdAdd        63189      0.12%     65.37% # Number of instructions issued per FU type, per thread (Count)
system.cpu.statIssuedInstType_0::SimdAddAcc            0      0.00%     65.37% # Number of instructions issued per FU type, per thread (Count)
system.cpu.statIssuedInstType_0::SimdAlu       118786      0.22%     65.58% # Number of instructions issued per FU type, per thread (Count)
system.cpu.statIssuedInstType_0::SimdCmp       111258      0.20%     65.79% # Number of instructions issued per FU type, per thread (Count)
system.cpu.statIssuedInstType_0::SimdCvt            0      0.00%     65.79% # Number of instructions issued per FU type, per thread (Count)
system.cpu.statIssuedInstType_0::SimdMisc        76924      0.14%     65.93% # Number of instructions issued per FU type, per thread (Count)
system.cpu.statIssuedInstType_0::SimdMult            0      0.00%     65.93% # Number of instructions issued per FU type, per thread (Count)
system.cpu.statIssuedInstType_0::SimdMultAcc            0      0.00%     65.93% # Number of instructions issued per FU type, per thread (Count)
system.cpu.statIssuedInstType_0::SimdShift            0      0.00%     65.93% # Number of instructions issued per FU type, per thread (Count)
system.cpu.statIssuedInstType_0::SimdShiftAcc            0      0.00%     65.93% # Number of instructions issued per FU type, per thread (Count)
system.cpu.statIssuedInstType_0::SimdDiv            0      0.00%     65.93% # Number of instructions issued per FU type, per thread (Count)
system.cpu.statIssuedInstType_0::SimdSqrt            0      0.00%     65.93% # Number of instructions issued per FU type, per thread (Count)
system.cpu.statIssuedInstType_0::SimdFloatAdd            0      0.00%     65.93% # Number of instructions issued per FU type, per thread (Count)
system.cpu.statIssuedInstType_0::SimdFloatAlu            0      0.00%     65.93% # Number of instructions issued per FU type, per thread (Count)
system.cpu.statIssuedInstType_0::SimdFloatCmp            0      0.00%     65.93% # Number of instructions issued per FU type, per thread (Count)
system.cpu.statIssuedInstType_0::SimdFloatCvt            0      0.00%     65.93% # Number of instructions issued per FU type, per thread (Count)
system.cpu.statIssuedInstType_0::SimdFloatDiv            0      0.00%     65.93% # Number of instructions issued per FU type, per thread (Count)
system.cpu.statIssuedInstType_0::SimdFloatMisc            0      0.00%     65.93% # Number of instructions issued per FU type, per thread (Count)
system.cpu.statIssuedInstType_0::SimdFloatMult            0      0.00%     65.93% # Number of instructions issued per FU type, per thread (Count)
system.cpu.statIssuedInstType_0::SimdFloatMultAcc            0      0.00%     65.93% # Number of instructions issued per FU type, per thread (Count)
system.cpu.statIssuedInstType_0::SimdFloatSqrt            0      0.00%     65.93% # Number of instructions issued per FU type, per thread (Count)
system.cpu.statIssuedInstType_0::SimdReduceAdd            0      0.00%     65.93% # Number of instructions issued per FU type, per thread (Count)
system.cpu.statIssuedInstType_0::SimdReduceAlu            0      0.00%     65.93% # Number of instructions issued per FU type, per thread (Count)
system.cpu.statIssuedInstType_0::SimdReduceCmp            0      0.00%     65.93% # Number of instructions issued per FU type, per thread (Count)
system.cpu.statIssuedInstType_0::SimdFloatReduceAdd            0      0.00%     65.93% # Number of instructions issued per FU type, per thread (Count)
system.cpu.statIssuedInstType_0::SimdFloatReduceCmp            0      0.00%     65.93% # Number of instructions issued per FU type, per thread (Count)
system.cpu.statIssuedInstType_0::SimdAes            0      0.00%     65.93% # Number of instructions issued per FU type, per thread (Count)
system.cpu.statIssuedInstType_0::SimdAesMix            0      0.00%     65.93% # Number of instructions issued per FU type, per thread (Count)
system.cpu.statIssuedInstType_0::SimdSha1Hash            0      0.00%     65.93% # Number of instructions issued per FU type, per thread (Count)
system.cpu.statIssuedInstType_0::SimdSha1Hash2            0      0.00%     65.93% # Number of instructions issued per FU type, per thread (Count)
system.cpu.statIssuedInstType_0::SimdSha256Hash            0      0.00%     65.93% # Number of instructions issued per FU type, per thread (Count)
system.cpu.statIssuedInstType_0::SimdSha256Hash2            0      0.00%     65.93% # Number of instructions issued per FU type, per thread (Count)
system.cpu.statIssuedInstType_0::SimdShaSigma2            0      0.00%     65.93% # Number of instructions issued per FU type, per thread (Count)
system.cpu.statIssuedInstType_0::SimdShaSigma3            0      0.00%     65.93% # Number of instructions issued per FU type, per thread (Count)
system.cpu.statIssuedInstType_0::SimdPredAlu            0      0.00%     65.93% # Number of instructions issued per FU type, per thread (Count)
system.cpu.statIssuedInstType_0::MemRead     12987502     23.85%     89.78% # Number of instructions issued per FU type, per thread (Count)
system.cpu.statIssuedInstType_0::MemWrite      5564246     10.22%    100.00% # Number of instructions issued per FU type, per thread (Count)
system.cpu.statIssuedInstType_0::FloatMemRead            0      0.00%    100.00% # Number of instructions issued per FU type, per thread (Count)
system.cpu.statIssuedInstType_0::FloatMemWrite            0      0.00%    100.00% # Number of instructions issued per FU type, per thread (Count)
system.cpu.statIssuedInstType_0::IprAccess            0      0.00%    100.00% # Number of instructions issued per FU type, per thread (Count)
system.cpu.statIssuedInstType_0::InstPrefetch            0      0.00%    100.00% # Number of instructions issued per FU type, per thread (Count)
system.cpu.statIssuedInstType_0::total       54451067                       # Number of instructions issued per FU type, per thread (Count)
system.cpu.issueRate                         0.948830                       # Inst issue rate ((Count/Cycle))
system.cpu.fuBusy                              982536                       # FU busy when requested (Count)
system.cpu.fuBusyRate                        0.018044                       # FU busy rate (busy events/executed inst) ((Count/Count))
system.cpu.intInstQueueReads                160307688                       # Number of integer instruction queue reads (Count)
system.cpu.intInstQueueWrites                54820544                       # Number of integer instruction queue writes (Count)
system.cpu.intInstQueueWakeupAccesses        49731205                       # Number of integer instruction queue wakeup accesses (Count)
system.cpu.fpInstQueueReads                         0                       # Number of floating instruction queue reads (Count)
system.cpu.fpInstQueueWrites                        0                       # Number of floating instruction queue writes (Count)
system.cpu.fpInstQueueWakeupAccesses                0                       # Number of floating instruction queue wakeup accesses (Count)
system.cpu.vecInstQueueReads                  5772646                       # Number of vector instruction queue reads (Count)
system.cpu.vecInstQueueWrites                 2922999                       # Number of vector instruction queue writes (Count)
system.cpu.vecInstQueueWakeupAccesses         2853166                       # Number of vector instruction queue wakeup accesses (Count)
system.cpu.intAluAccesses                    52535757                       # Number of integer alu accesses (Count)
system.cpu.fpAluAccesses                            0                       # Number of floating point alu accesses (Count)
system.cpu.vecAluAccesses                     2869993                       # Number of vector alu accesses (Count)
system.cpu.numInsts                          54312681                       # Number of executed instructions (Count)
system.cpu.numLoadInsts                      12928222                       # Number of load instructions executed (Count)
system.cpu.numSquashedInsts                    138386                       # Number of squashed instructions skipped in execute (Count)
system.cpu.numSwp                                   0                       # Number of swp insts executed (Count)
system.cpu.numNop                               65737                       # Number of nop insts executed (Count)
system.cpu.numRefs                           18478637                       # Number of memory reference insts executed (Count)
system.cpu.numBranches                        7005991                       # Number of branches executed (Count)
system.cpu.numStoreInsts                      5550415                       # Number of stores executed (Count)
system.cpu.numRate                           0.946419                       # Inst execution rate ((Count/Cycle))
system.cpu.timesIdled                           29488                       # Number of times that the entire CPU went into an idle state and unscheduled itself (Count)
system.cpu.idleCycles                         1249282                       # Total number of cycles that the CPU has spent unscheduled due to idling (Cycle)
system.cpu.committedInsts                    46326279                       # Number of Instructions Simulated (Count)
system.cpu.committedOps                      50666649                       # Number of Ops (including micro ops) Simulated (Count)
system.cpu.cpi                               1.238769                       # CPI: Cycles Per Instruction ((Cycle/Count))
system.cpu.totalCpi                          1.238769                       # CPI: Total CPI of All Threads ((Cycle/Count))
system.cpu.ipc                               0.807253                       # IPC: Instructions Per Cycle ((Count/Cycle))
system.cpu.totalIpc                          0.807253                       # IPC: Total IPC of All Threads ((Count/Cycle))
system.cpu.intRegfileReads                   64888954                       # Number of integer regfile reads (Count)
system.cpu.intRegfileWrites                  39477189                       # Number of integer regfile writes (Count)
system.cpu.vecRegfileReads                    2427928                       # number of vector regfile reads (Count)
system.cpu.vecRegfileWrites                   2169312                       # number of vector regfile writes (Count)
system.cpu.ccRegfileReads                    14839614                       # number of cc regfile reads (Count)
system.cpu.ccRegfileWrites                   14774844                       # number of cc regfile writes (Count)
system.cpu.miscRegfileReads                 102005686                       # number of misc regfile reads (Count)
system.cpu.miscRegfileWrites                   561209                       # number of misc regfile writes (Count)
system.cpu.MemDepUnit__0.insertedLoads       11559705                       # Number of loads inserted to the mem dependence unit. (Count)
system.cpu.MemDepUnit__0.insertedStores       5662742                       # Number of stores inserted to the mem dependence unit. (Count)
system.cpu.MemDepUnit__0.conflictingLoads      2751063                       # Number of conflicting loads. (Count)
system.cpu.MemDepUnit__0.conflictingStores       916958                       # Number of conflicting stores. (Count)
system.cpu.MemDepUnit__1.insertedLoads              0                       # Number of loads inserted to the mem dependence unit. (Count)
system.cpu.MemDepUnit__1.insertedStores             0                       # Number of stores inserted to the mem dependence unit. (Count)
system.cpu.MemDepUnit__1.conflictingLoads            0                       # Number of conflicting loads. (Count)
system.cpu.MemDepUnit__1.conflictingStores            0                       # Number of conflicting stores. (Count)
system.cpu.MemDepUnit__2.insertedLoads              0                       # Number of loads inserted to the mem dependence unit. (Count)
system.cpu.MemDepUnit__2.insertedStores             0                       # Number of stores inserted to the mem dependence unit. (Count)
system.cpu.MemDepUnit__2.conflictingLoads            0                       # Number of conflicting loads. (Count)
system.cpu.MemDepUnit__2.conflictingStores            0                       # Number of conflicting stores. (Count)
system.cpu.MemDepUnit__3.insertedLoads              0                       # Number of loads inserted to the mem dependence unit. (Count)
system.cpu.MemDepUnit__3.insertedStores             0                       # Number of stores inserted to the mem dependence unit. (Count)
system.cpu.MemDepUnit__3.conflictingLoads            0                       # Number of conflicting loads. (Count)
system.cpu.MemDepUnit__3.conflictingStores            0                       # Number of conflicting stores. (Count)
system.cpu.branchPred.lookups                 7715923                       # Number of BP lookups (Count)
system.cpu.branchPred.condPredicted           5842931                       # Number of conditional branches predicted (Count)
system.cpu.branchPred.condIncorrect            110448                       # Number of conditional branches incorrect (Count)
system.cpu.branchPred.BTBLookups              4349982                       # Number of BTB lookups (Count)
system.cpu.branchPred.BTBHits                 4326407                       # Number of BTB hits (Count)
system.cpu.branchPred.BTBHitRatio            0.994580                       # BTB Hit Ratio (Ratio)
system.cpu.branchPred.RASUsed                  585349                       # Number of times the RAS was used to get a target. (Count)
system.cpu.branchPred.RASIncorrect                  6                       # Number of incorrect RAS predictions. (Count)
system.cpu.branchPred.indirectLookups           77897                       # Number of indirect predictor lookups. (Count)
system.cpu.branchPred.indirectHits              76577                       # Number of indirect target hits. (Count)
system.cpu.branchPred.indirectMisses             1320                       # Number of indirect misses. (Count)
system.cpu.branchPred.indirectMispredicted          117                       # Number of mispredicted indirect branches. (Count)
system.cpu.commit.commitSquashedInsts         3546384                       # The number of squashed insts skipped by commit (Count)
system.cpu.commit.commitNonSpecStalls            4171                       # The number of times commit has been forced to stall to communicate backwards (Count)
system.cpu.commit.branchMispredicts             97459                       # The number of times a branch was mispredicted (Count)
system.cpu.commit.numCommittedDist::samples     55641491                       # Number of insts commited each cycle (Count)
system.cpu.commit.numCommittedDist::mean     0.911669                       # Number of insts commited each cycle (Count)
system.cpu.commit.numCommittedDist::stdev     2.298452                       # Number of insts commited each cycle (Count)
system.cpu.commit.numCommittedDist::underflows            0      0.00%      0.00% # Number of insts commited each cycle (Count)
system.cpu.commit.numCommittedDist::0        44818052     80.55%     80.55% # Number of insts commited each cycle (Count)
system.cpu.commit.numCommittedDist::1         2686755      4.83%     85.38% # Number of insts commited each cycle (Count)
system.cpu.commit.numCommittedDist::2         1685803      3.03%     88.41% # Number of insts commited each cycle (Count)
system.cpu.commit.numCommittedDist::3          794123      1.43%     89.83% # Number of insts commited each cycle (Count)
system.cpu.commit.numCommittedDist::4          280970      0.50%     90.34% # Number of insts commited each cycle (Count)
system.cpu.commit.numCommittedDist::5          401615      0.72%     91.06% # Number of insts commited each cycle (Count)
system.cpu.commit.numCommittedDist::6          162506      0.29%     91.35% # Number of insts commited each cycle (Count)
system.cpu.commit.numCommittedDist::7          314446      0.57%     91.92% # Number of insts commited each cycle (Count)
system.cpu.commit.numCommittedDist::8         4497221      8.08%    100.00% # Number of insts commited each cycle (Count)
system.cpu.commit.numCommittedDist::overflows            0      0.00%    100.00% # Number of insts commited each cycle (Count)
system.cpu.commit.numCommittedDist::min_value            0                       # Number of insts commited each cycle (Count)
system.cpu.commit.numCommittedDist::max_value            8                       # Number of insts commited each cycle (Count)
system.cpu.commit.numCommittedDist::total     55641491                       # Number of insts commited each cycle (Count)
system.cpu.commit.instsCommitted             46386241                       # Number of instructions committed (Count)
system.cpu.commit.opsCommitted               50726611                       # Number of ops (including micro ops) committed (Count)
system.cpu.commit.memRefs                    16302297                       # Number of memory references committed (Count)
system.cpu.commit.loads                      11006940                       # Number of loads committed (Count)
system.cpu.commit.amos                             20                       # Number of atomic instructions committed (Count)
system.cpu.commit.membars                          24                       # Number of memory barriers committed (Count)
system.cpu.commit.branches                    6723046                       # Number of branches committed (Count)
system.cpu.commit.vectorInstructions          2842563                       # Number of committed Vector instructions. (Count)
system.cpu.commit.floating                          0                       # Number of committed floating point instructions. (Count)
system.cpu.commit.integer                    45425700                       # Number of committed integer instructions. (Count)
system.cpu.commit.functionCalls                508101                       # Number of function calls committed. (Count)
system.cpu.commit.committedInstType_0::No_OpClass        27678      0.05%      0.05% # Class of committed instruction (Count)
system.cpu.commit.committedInstType_0::IntAlu     32627942     64.32%     64.38% # Class of committed instruction (Count)
system.cpu.commit.committedInstType_0::IntMult       641224      1.26%     65.64% # Class of committed instruction (Count)
system.cpu.commit.committedInstType_0::IntDiv       153813      0.30%     65.94% # Class of committed instruction (Count)
system.cpu.commit.committedInstType_0::FloatAdd       278528      0.55%     66.49% # Class of committed instruction (Count)
system.cpu.commit.committedInstType_0::FloatCmp        16384      0.03%     66.52% # Class of committed instruction (Count)
system.cpu.commit.committedInstType_0::FloatCvt            0      0.00%     66.52% # Class of committed instruction (Count)
system.cpu.commit.committedInstType_0::FloatMult       262144      0.52%     67.04% # Class of committed instruction (Count)
system.cpu.commit.committedInstType_0::FloatMultAcc            0      0.00%     67.04% # Class of committed instruction (Count)
system.cpu.commit.committedInstType_0::FloatDiv            0      0.00%     67.04% # Class of committed instruction (Count)
system.cpu.commit.committedInstType_0::FloatMisc        49152      0.10%     67.14% # Class of committed instruction (Count)
system.cpu.commit.committedInstType_0::FloatSqrt            0      0.00%     67.14% # Class of committed instruction (Count)
system.cpu.commit.committedInstType_0::SimdAdd        62740      0.12%     67.26% # Class of committed instruction (Count)
system.cpu.commit.committedInstType_0::SimdAddAcc            0      0.00%     67.26% # Class of committed instruction (Count)
system.cpu.commit.committedInstType_0::SimdAlu       118039      0.23%     67.49% # Class of committed instruction (Count)
system.cpu.commit.committedInstType_0::SimdCmp       110616      0.22%     67.71% # Class of committed instruction (Count)
system.cpu.commit.committedInstType_0::SimdCvt            0      0.00%     67.71% # Class of committed instruction (Count)
system.cpu.commit.committedInstType_0::SimdMisc        76054      0.15%     67.86% # Class of committed instruction (Count)
system.cpu.commit.committedInstType_0::SimdMult            0      0.00%     67.86% # Class of committed instruction (Count)
system.cpu.commit.committedInstType_0::SimdMultAcc            0      0.00%     67.86% # Class of committed instruction (Count)
system.cpu.commit.committedInstType_0::SimdShift            0      0.00%     67.86% # Class of committed instruction (Count)
system.cpu.commit.committedInstType_0::SimdShiftAcc            0      0.00%     67.86% # Class of committed instruction (Count)
system.cpu.commit.committedInstType_0::SimdDiv            0      0.00%     67.86% # Class of committed instruction (Count)
system.cpu.commit.committedInstType_0::SimdSqrt            0      0.00%     67.86% # Class of committed instruction (Count)
system.cpu.commit.committedInstType_0::SimdFloatAdd            0      0.00%     67.86% # Class of committed instruction (Count)
system.cpu.commit.committedInstType_0::SimdFloatAlu            0      0.00%     67.86% # Class of committed instruction (Count)
system.cpu.commit.committedInstType_0::SimdFloatCmp            0      0.00%     67.86% # Class of committed instruction (Count)
system.cpu.commit.committedInstType_0::SimdFloatCvt            0      0.00%     67.86% # Class of committed instruction (Count)
system.cpu.commit.committedInstType_0::SimdFloatDiv            0      0.00%     67.86% # Class of committed instruction (Count)
system.cpu.commit.committedInstType_0::SimdFloatMisc            0      0.00%     67.86% # Class of committed instruction (Count)
system.cpu.commit.committedInstType_0::SimdFloatMult            0      0.00%     67.86% # Class of committed instruction (Count)
system.cpu.commit.committedInstType_0::SimdFloatMultAcc            0      0.00%     67.86% # Class of committed instruction (Count)
system.cpu.commit.committedInstType_0::SimdFloatSqrt            0      0.00%     67.86% # Class of committed instruction (Count)
system.cpu.commit.committedInstType_0::SimdReduceAdd            0      0.00%     67.86% # Class of committed instruction (Count)
system.cpu.commit.committedInstType_0::SimdReduceAlu            0      0.00%     67.86% # Class of committed instruction (Count)
system.cpu.commit.committedInstType_0::SimdReduceCmp            0      0.00%     67.86% # Class of committed instruction (Count)
system.cpu.commit.committedInstType_0::SimdFloatReduceAdd            0      0.00%     67.86% # Class of committed instruction (Count)
system.cpu.commit.committedInstType_0::SimdFloatReduceCmp            0      0.00%     67.86% # Class of committed instruction (Count)
system.cpu.commit.committedInstType_0::SimdAes            0      0.00%     67.86% # Class of committed instruction (Count)
system.cpu.commit.committedInstType_0::SimdAesMix            0      0.00%     67.86% # Class of committed instruction (Count)
system.cpu.commit.committedInstType_0::SimdSha1Hash            0      0.00%     67.86% # Class of committed instruction (Count)
system.cpu.commit.committedInstType_0::SimdSha1Hash2            0      0.00%     67.86% # Class of committed instruction (Count)
system.cpu.commit.committedInstType_0::SimdSha256Hash            0      0.00%     67.86% # Class of committed instruction (Count)
system.cpu.commit.committedInstType_0::SimdSha256Hash2            0      0.00%     67.86% # Class of committed instruction (Count)
system.cpu.commit.committedInstType_0::SimdShaSigma2            0      0.00%     67.86% # Class of committed instruction (Count)
system.cpu.commit.committedInstType_0::SimdShaSigma3            0      0.00%     67.86% # Class of committed instruction (Count)
system.cpu.commit.committedInstType_0::SimdPredAlu            0      0.00%     67.86% # Class of committed instruction (Count)
system.cpu.commit.committedInstType_0::MemRead     11006940     21.70%     89.56% # Class of committed instruction (Count)
system.cpu.commit.committedInstType_0::MemWrite      5295357     10.44%    100.00% # Class of committed instruction (Count)
system.cpu.commit.committedInstType_0::FloatMemRead            0      0.00%    100.00% # Class of committed instruction (Count)
system.cpu.commit.committedInstType_0::FloatMemWrite            0      0.00%    100.00% # Class of committed instruction (Count)
system.cpu.commit.committedInstType_0::IprAccess            0      0.00%    100.00% # Class of committed instruction (Count)
system.cpu.commit.committedInstType_0::InstPrefetch            0      0.00%    100.00% # Class of committed instruction (Count)
system.cpu.commit.committedInstType_0::total     50726611                       # Class of committed instruction (Count)
system.cpu.commit.commitEligibleSamples       4497221                       # number cycles where commit BW limit reached (Cycle)
system.cpu.dcache.demandHits::cpu.data       11535783                       # number of demand (read+write) hits (Count)
system.cpu.dcache.demandHits::total          11535783                       # number of demand (read+write) hits (Count)
system.cpu.dcache.overallHits::cpu.data      11541784                       # number of overall hits (Count)
system.cpu.dcache.overallHits::total         11541784                       # number of overall hits (Count)
system.cpu.dcache.demandMisses::cpu.data      2196689                       # number of demand (read+write) misses (Count)
system.cpu.dcache.demandMisses::total         2196689                       # number of demand (read+write) misses (Count)
system.cpu.dcache.overallMisses::cpu.data      2220663                       # number of overall misses (Count)
system.cpu.dcache.overallMisses::total        2220663                       # number of overall misses (Count)
system.cpu.dcache.demandMissLatency::cpu.data  92162658307                       # number of demand (read+write) miss ticks (Tick)
system.cpu.dcache.demandMissLatency::total  92162658307                       # number of demand (read+write) miss ticks (Tick)
system.cpu.dcache.overallMissLatency::cpu.data  92162658307                       # number of overall miss ticks (Tick)
system.cpu.dcache.overallMissLatency::total  92162658307                       # number of overall miss ticks (Tick)
system.cpu.dcache.demandAccesses::cpu.data     13732472                       # number of demand (read+write) accesses (Count)
system.cpu.dcache.demandAccesses::total      13732472                       # number of demand (read+write) accesses (Count)
system.cpu.dcache.overallAccesses::cpu.data     13762447                       # number of overall (read+write) accesses (Count)
system.cpu.dcache.overallAccesses::total     13762447                       # number of overall (read+write) accesses (Count)
system.cpu.dcache.demandMissRate::cpu.data     0.159963                       # miss rate for demand accesses (Ratio)
system.cpu.dcache.demandMissRate::total      0.159963                       # miss rate for demand accesses (Ratio)
system.cpu.dcache.overallMissRate::cpu.data     0.161357                       # miss rate for overall accesses (Ratio)
system.cpu.dcache.overallMissRate::total     0.161357                       # miss rate for overall accesses (Ratio)
system.cpu.dcache.demandAvgMissLatency::cpu.data 41955.260079                       # average overall miss latency ((Cycle/Count))
system.cpu.dcache.demandAvgMissLatency::total 41955.260079                       # average overall miss latency ((Cycle/Count))
system.cpu.dcache.overallAvgMissLatency::cpu.data 41502.316338                       # average overall miss latency ((Cycle/Count))
system.cpu.dcache.overallAvgMissLatency::total 41502.316338                       # average overall miss latency ((Cycle/Count))
system.cpu.dcache.blockedCycles::no_mshrs      6586289                       # number of cycles access was blocked (Cycle)
system.cpu.dcache.blockedCycles::no_targets           16                       # number of cycles access was blocked (Cycle)
system.cpu.dcache.blockedCauses::no_mshrs       247372                       # number of times access was blocked (Count)
system.cpu.dcache.blockedCauses::no_targets            1                       # number of times access was blocked (Count)
system.cpu.dcache.avgBlocked::no_mshrs      26.625038                       # average number of cycles each access was blocked ((Cycle/Count))
system.cpu.dcache.avgBlocked::no_targets           16                       # average number of cycles each access was blocked ((Cycle/Count))
system.cpu.dcache.writebacks::writebacks       405636                       # number of writebacks (Count)
system.cpu.dcache.writebacks::total            405636                       # number of writebacks (Count)
system.cpu.dcache.demandMshrHits::cpu.data      1299012                       # number of demand (read+write) MSHR hits (Count)
system.cpu.dcache.demandMshrHits::total       1299012                       # number of demand (read+write) MSHR hits (Count)
system.cpu.dcache.overallMshrHits::cpu.data      1299012                       # number of overall MSHR hits (Count)
system.cpu.dcache.overallMshrHits::total      1299012                       # number of overall MSHR hits (Count)
system.cpu.dcache.demandMshrMisses::cpu.data       897677                       # number of demand (read+write) MSHR misses (Count)
system.cpu.dcache.demandMshrMisses::total       897677                       # number of demand (read+write) MSHR misses (Count)
system.cpu.dcache.overallMshrMisses::cpu.data       914304                       # number of overall MSHR misses (Count)
system.cpu.dcache.overallMshrMisses::total       914304                       # number of overall MSHR misses (Count)
system.cpu.dcache.demandMshrMissLatency::cpu.data  43642023869                       # number of demand (read+write) MSHR miss ticks (Tick)
system.cpu.dcache.demandMshrMissLatency::total  43642023869                       # number of demand (read+write) MSHR miss ticks (Tick)
system.cpu.dcache.overallMshrMissLatency::cpu.data  44642248369                       # number of overall MSHR miss ticks (Tick)
system.cpu.dcache.overallMshrMissLatency::total  44642248369                       # number of overall MSHR miss ticks (Tick)
system.cpu.dcache.demandMshrMissRate::cpu.data     0.065369                       # mshr miss ratio for demand accesses (Ratio)
system.cpu.dcache.demandMshrMissRate::total     0.065369                       # mshr miss ratio for demand accesses (Ratio)
system.cpu.dcache.overallMshrMissRate::cpu.data     0.066435                       # mshr miss ratio for overall accesses (Ratio)
system.cpu.dcache.overallMshrMissRate::total     0.066435                       # mshr miss ratio for overall accesses (Ratio)
system.cpu.dcache.demandAvgMshrMissLatency::cpu.data 48616.622537                       # average overall mshr miss latency ((Cycle/Count))
system.cpu.dcache.demandAvgMshrMissLatency::total 48616.622537                       # average overall mshr miss latency ((Cycle/Count))
system.cpu.dcache.overallAvgMshrMissLatency::cpu.data 48826.482624                       # average overall mshr miss latency ((Cycle/Count))
system.cpu.dcache.overallAvgMshrMissLatency::total 48826.482624                       # average overall mshr miss latency ((Cycle/Count))
system.cpu.dcache.replacements                 914292                       # number of replacements (Count)
system.cpu.dcache.LoadLockedReq.hits::cpu.data            3                       # number of LoadLockedReq hits (Count)
system.cpu.dcache.LoadLockedReq.hits::total            3                       # number of LoadLockedReq hits (Count)
system.cpu.dcache.LoadLockedReq.misses::cpu.data            2                       # number of LoadLockedReq misses (Count)
system.cpu.dcache.LoadLockedReq.misses::total            2                       # number of LoadLockedReq misses (Count)
system.cpu.dcache.LoadLockedReq.missLatency::cpu.data        73500                       # number of LoadLockedReq miss ticks (Tick)
system.cpu.dcache.LoadLockedReq.missLatency::total        73500                       # number of LoadLockedReq miss ticks (Tick)
system.cpu.dcache.LoadLockedReq.accesses::cpu.data            5                       # number of LoadLockedReq accesses(hits+misses) (Count)
system.cpu.dcache.LoadLockedReq.accesses::total            5                       # number of LoadLockedReq accesses(hits+misses) (Count)
system.cpu.dcache.LoadLockedReq.missRate::cpu.data     0.400000                       # miss rate for LoadLockedReq accesses (Ratio)
system.cpu.dcache.LoadLockedReq.missRate::total     0.400000                       # miss rate for LoadLockedReq accesses (Ratio)
system.cpu.dcache.LoadLockedReq.avgMissLatency::cpu.data        36750                       # average LoadLockedReq miss latency ((Tick/Count))
system.cpu.dcache.LoadLockedReq.avgMissLatency::total        36750                       # average LoadLockedReq miss latency ((Tick/Count))
system.cpu.dcache.LoadLockedReq.mshrMisses::cpu.data            2                       # number of LoadLockedReq MSHR misses (Count)
system.cpu.dcache.LoadLockedReq.mshrMisses::total            2                       # number of LoadLockedReq MSHR misses (Count)
system.cpu.dcache.LoadLockedReq.mshrMissLatency::cpu.data        71500                       # number of LoadLockedReq MSHR miss ticks (Tick)
system.cpu.dcache.LoadLockedReq.mshrMissLatency::total        71500                       # number of LoadLockedReq MSHR miss ticks (Tick)
system.cpu.dcache.LoadLockedReq.mshrMissRate::cpu.data     0.400000                       # mshr miss rate for LoadLockedReq accesses (Ratio)
system.cpu.dcache.LoadLockedReq.mshrMissRate::total     0.400000                       # mshr miss rate for LoadLockedReq accesses (Ratio)
system.cpu.dcache.LoadLockedReq.avgMshrMissLatency::cpu.data        35750                       # average LoadLockedReq mshr miss latency ((Tick/Count))
system.cpu.dcache.LoadLockedReq.avgMshrMissLatency::total        35750                       # average LoadLockedReq mshr miss latency ((Tick/Count))
system.cpu.dcache.ReadReq.hits::cpu.data      7112847                       # number of ReadReq hits (Count)
system.cpu.dcache.ReadReq.hits::total         7112847                       # number of ReadReq hits (Count)
system.cpu.dcache.ReadReq.misses::cpu.data      1324290                       # number of ReadReq misses (Count)
system.cpu.dcache.ReadReq.misses::total       1324290                       # number of ReadReq misses (Count)
system.cpu.dcache.ReadReq.missLatency::cpu.data  62945983500                       # number of ReadReq miss ticks (Tick)
system.cpu.dcache.ReadReq.missLatency::total  62945983500                       # number of ReadReq miss ticks (Tick)
system.cpu.dcache.ReadReq.accesses::cpu.data      8437137                       # number of ReadReq accesses(hits+misses) (Count)
system.cpu.dcache.ReadReq.accesses::total      8437137                       # number of ReadReq accesses(hits+misses) (Count)
system.cpu.dcache.ReadReq.missRate::cpu.data     0.156960                       # miss rate for ReadReq accesses (Ratio)
system.cpu.dcache.ReadReq.missRate::total     0.156960                       # miss rate for ReadReq accesses (Ratio)
system.cpu.dcache.ReadReq.avgMissLatency::cpu.data 47531.872551                       # average ReadReq miss latency ((Tick/Count))
system.cpu.dcache.ReadReq.avgMissLatency::total 47531.872551                       # average ReadReq miss latency ((Tick/Count))
system.cpu.dcache.ReadReq.mshrHits::cpu.data       691836                       # number of ReadReq MSHR hits (Count)
system.cpu.dcache.ReadReq.mshrHits::total       691836                       # number of ReadReq MSHR hits (Count)
system.cpu.dcache.ReadReq.mshrMisses::cpu.data       632454                       # number of ReadReq MSHR misses (Count)
system.cpu.dcache.ReadReq.mshrMisses::total       632454                       # number of ReadReq MSHR misses (Count)
system.cpu.dcache.ReadReq.mshrMissLatency::cpu.data  33843841000                       # number of ReadReq MSHR miss ticks (Tick)
system.cpu.dcache.ReadReq.mshrMissLatency::total  33843841000                       # number of ReadReq MSHR miss ticks (Tick)
system.cpu.dcache.ReadReq.mshrMissRate::cpu.data     0.074961                       # mshr miss rate for ReadReq accesses (Ratio)
system.cpu.dcache.ReadReq.mshrMissRate::total     0.074961                       # mshr miss rate for ReadReq accesses (Ratio)
system.cpu.dcache.ReadReq.avgMshrMissLatency::cpu.data 53511.940789                       # average ReadReq mshr miss latency ((Tick/Count))
system.cpu.dcache.ReadReq.avgMshrMissLatency::total 53511.940789                       # average ReadReq mshr miss latency ((Tick/Count))
system.cpu.dcache.SoftPFReq.hits::cpu.data         6001                       # number of SoftPFReq hits (Count)
system.cpu.dcache.SoftPFReq.hits::total          6001                       # number of SoftPFReq hits (Count)
system.cpu.dcache.SoftPFReq.misses::cpu.data        23974                       # number of SoftPFReq misses (Count)
system.cpu.dcache.SoftPFReq.misses::total        23974                       # number of SoftPFReq misses (Count)
system.cpu.dcache.SoftPFReq.accesses::cpu.data        29975                       # number of SoftPFReq accesses(hits+misses) (Count)
system.cpu.dcache.SoftPFReq.accesses::total        29975                       # number of SoftPFReq accesses(hits+misses) (Count)
system.cpu.dcache.SoftPFReq.missRate::cpu.data     0.799800                       # miss rate for SoftPFReq accesses (Ratio)
system.cpu.dcache.SoftPFReq.missRate::total     0.799800                       # miss rate for SoftPFReq accesses (Ratio)
system.cpu.dcache.SoftPFReq.mshrMisses::cpu.data        16627                       # number of SoftPFReq MSHR misses (Count)
system.cpu.dcache.SoftPFReq.mshrMisses::total        16627                       # number of SoftPFReq MSHR misses (Count)
system.cpu.dcache.SoftPFReq.mshrMissLatency::cpu.data   1000224500                       # number of SoftPFReq MSHR miss ticks (Tick)
system.cpu.dcache.SoftPFReq.mshrMissLatency::total   1000224500                       # number of SoftPFReq MSHR miss ticks (Tick)
system.cpu.dcache.SoftPFReq.mshrMissRate::cpu.data     0.554696                       # mshr miss rate for SoftPFReq accesses (Ratio)
system.cpu.dcache.SoftPFReq.mshrMissRate::total     0.554696                       # mshr miss rate for SoftPFReq accesses (Ratio)
system.cpu.dcache.SoftPFReq.avgMshrMissLatency::cpu.data 60156.642810                       # average SoftPFReq mshr miss latency ((Tick/Count))
system.cpu.dcache.SoftPFReq.avgMshrMissLatency::total 60156.642810                       # average SoftPFReq mshr miss latency ((Tick/Count))
system.cpu.dcache.StoreCondReq.hits::cpu.data            4                       # number of StoreCondReq hits (Count)
system.cpu.dcache.StoreCondReq.hits::total            4                       # number of StoreCondReq hits (Count)
system.cpu.dcache.StoreCondReq.accesses::cpu.data            4                       # number of StoreCondReq accesses(hits+misses) (Count)
system.cpu.dcache.StoreCondReq.accesses::total            4                       # number of StoreCondReq accesses(hits+misses) (Count)
system.cpu.dcache.SwapReq.hits::cpu.data           18                       # number of SwapReq hits (Count)
system.cpu.dcache.SwapReq.hits::total              18                       # number of SwapReq hits (Count)
system.cpu.dcache.SwapReq.misses::cpu.data            2                       # number of SwapReq misses (Count)
system.cpu.dcache.SwapReq.misses::total             2                       # number of SwapReq misses (Count)
system.cpu.dcache.SwapReq.missLatency::cpu.data       195500                       # number of SwapReq miss ticks (Tick)
system.cpu.dcache.SwapReq.missLatency::total       195500                       # number of SwapReq miss ticks (Tick)
system.cpu.dcache.SwapReq.accesses::cpu.data           20                       # number of SwapReq accesses(hits+misses) (Count)
system.cpu.dcache.SwapReq.accesses::total           20                       # number of SwapReq accesses(hits+misses) (Count)
system.cpu.dcache.SwapReq.missRate::cpu.data     0.100000                       # miss rate for SwapReq accesses (Ratio)
system.cpu.dcache.SwapReq.missRate::total     0.100000                       # miss rate for SwapReq accesses (Ratio)
system.cpu.dcache.SwapReq.avgMissLatency::cpu.data        97750                       # average SwapReq miss latency ((Tick/Count))
system.cpu.dcache.SwapReq.avgMissLatency::total        97750                       # average SwapReq miss latency ((Tick/Count))
system.cpu.dcache.SwapReq.mshrMisses::cpu.data            2                       # number of SwapReq MSHR misses (Count)
system.cpu.dcache.SwapReq.mshrMisses::total            2                       # number of SwapReq MSHR misses (Count)
system.cpu.dcache.SwapReq.mshrMissLatency::cpu.data       193500                       # number of SwapReq MSHR miss ticks (Tick)
system.cpu.dcache.SwapReq.mshrMissLatency::total       193500                       # number of SwapReq MSHR miss ticks (Tick)
system.cpu.dcache.SwapReq.mshrMissRate::cpu.data     0.100000                       # mshr miss rate for SwapReq accesses (Ratio)
system.cpu.dcache.SwapReq.mshrMissRate::total     0.100000                       # mshr miss rate for SwapReq accesses (Ratio)
system.cpu.dcache.SwapReq.avgMshrMissLatency::cpu.data        96750                       # average SwapReq mshr miss latency ((Tick/Count))
system.cpu.dcache.SwapReq.avgMshrMissLatency::total        96750                       # average SwapReq mshr miss latency ((Tick/Count))
system.cpu.dcache.WriteLineReq.misses::cpu.data         1540                       # number of WriteLineReq misses (Count)
system.cpu.dcache.WriteLineReq.misses::total         1540                       # number of WriteLineReq misses (Count)
system.cpu.dcache.WriteLineReq.missLatency::cpu.data     30417391                       # number of WriteLineReq miss ticks (Tick)
system.cpu.dcache.WriteLineReq.missLatency::total     30417391                       # number of WriteLineReq miss ticks (Tick)
system.cpu.dcache.WriteLineReq.accesses::cpu.data         1540                       # number of WriteLineReq accesses(hits+misses) (Count)
system.cpu.dcache.WriteLineReq.accesses::total         1540                       # number of WriteLineReq accesses(hits+misses) (Count)
system.cpu.dcache.WriteLineReq.missRate::cpu.data            1                       # miss rate for WriteLineReq accesses (Ratio)
system.cpu.dcache.WriteLineReq.missRate::total            1                       # miss rate for WriteLineReq accesses (Ratio)
system.cpu.dcache.WriteLineReq.avgMissLatency::cpu.data 19751.552597                       # average WriteLineReq miss latency ((Tick/Count))
system.cpu.dcache.WriteLineReq.avgMissLatency::total 19751.552597                       # average WriteLineReq miss latency ((Tick/Count))
system.cpu.dcache.WriteLineReq.mshrMisses::cpu.data         1540                       # number of WriteLineReq MSHR misses (Count)
system.cpu.dcache.WriteLineReq.mshrMisses::total         1540                       # number of WriteLineReq MSHR misses (Count)
system.cpu.dcache.WriteLineReq.mshrMissLatency::cpu.data     28877391                       # number of WriteLineReq MSHR miss ticks (Tick)
system.cpu.dcache.WriteLineReq.mshrMissLatency::total     28877391                       # number of WriteLineReq MSHR miss ticks (Tick)
system.cpu.dcache.WriteLineReq.mshrMissRate::cpu.data            1                       # mshr miss rate for WriteLineReq accesses (Ratio)
system.cpu.dcache.WriteLineReq.mshrMissRate::total            1                       # mshr miss rate for WriteLineReq accesses (Ratio)
system.cpu.dcache.WriteLineReq.avgMshrMissLatency::cpu.data 18751.552597                       # average WriteLineReq mshr miss latency ((Tick/Count))
system.cpu.dcache.WriteLineReq.avgMshrMissLatency::total 18751.552597                       # average WriteLineReq mshr miss latency ((Tick/Count))
system.cpu.dcache.WriteReq.hits::cpu.data      4422936                       # number of WriteReq hits (Count)
system.cpu.dcache.WriteReq.hits::total        4422936                       # number of WriteReq hits (Count)
system.cpu.dcache.WriteReq.misses::cpu.data       870859                       # number of WriteReq misses (Count)
system.cpu.dcache.WriteReq.misses::total       870859                       # number of WriteReq misses (Count)
system.cpu.dcache.WriteReq.missLatency::cpu.data  29186257416                       # number of WriteReq miss ticks (Tick)
system.cpu.dcache.WriteReq.missLatency::total  29186257416                       # number of WriteReq miss ticks (Tick)
system.cpu.dcache.WriteReq.accesses::cpu.data      5293795                       # number of WriteReq accesses(hits+misses) (Count)
system.cpu.dcache.WriteReq.accesses::total      5293795                       # number of WriteReq accesses(hits+misses) (Count)
system.cpu.dcache.WriteReq.missRate::cpu.data     0.164506                       # miss rate for WriteReq accesses (Ratio)
system.cpu.dcache.WriteReq.missRate::total     0.164506                       # miss rate for WriteReq accesses (Ratio)
system.cpu.dcache.WriteReq.avgMissLatency::cpu.data 33514.331730                       # average WriteReq miss latency ((Tick/Count))
system.cpu.dcache.WriteReq.avgMissLatency::total 33514.331730                       # average WriteReq miss latency ((Tick/Count))
system.cpu.dcache.WriteReq.mshrHits::cpu.data       607176                       # number of WriteReq MSHR hits (Count)
system.cpu.dcache.WriteReq.mshrHits::total       607176                       # number of WriteReq MSHR hits (Count)
system.cpu.dcache.WriteReq.mshrMisses::cpu.data       263683                       # number of WriteReq MSHR misses (Count)
system.cpu.dcache.WriteReq.mshrMisses::total       263683                       # number of WriteReq MSHR misses (Count)
system.cpu.dcache.WriteReq.mshrMissLatency::cpu.data   9769305478                       # number of WriteReq MSHR miss ticks (Tick)
system.cpu.dcache.WriteReq.mshrMissLatency::total   9769305478                       # number of WriteReq MSHR miss ticks (Tick)
system.cpu.dcache.WriteReq.mshrMissRate::cpu.data     0.049810                       # mshr miss rate for WriteReq accesses (Ratio)
system.cpu.dcache.WriteReq.mshrMissRate::total     0.049810                       # mshr miss rate for WriteReq accesses (Ratio)
system.cpu.dcache.WriteReq.avgMshrMissLatency::cpu.data 37049.432379                       # average WriteReq mshr miss latency ((Tick/Count))
system.cpu.dcache.WriteReq.avgMshrMissLatency::total 37049.432379                       # average WriteReq mshr miss latency ((Tick/Count))
system.cpu.dcache.power_state.pwrStateResidencyTicks::UNDEFINED  28693781000                       # Cumulative time (in ticks) in various power states (Tick)
system.cpu.dcache.tags.tagsInUse            15.999712                       # Average ticks per tags in use ((Tick/Count))
system.cpu.dcache.tags.totalRefs             12456117                       # Total number of references to valid blocks. (Count)
system.cpu.dcache.tags.sampledRefs             914308                       # Sample count of references to valid blocks. (Count)
system.cpu.dcache.tags.avgRefs              13.623546                       # Average number of references to valid blocks. ((Count/Count))
system.cpu.dcache.tags.warmupTick              145000                       # The tick when the warmup percentage was hit. (Tick)
system.cpu.dcache.tags.occupancies::cpu.data    15.999712                       # Average occupied blocks per tick, per requestor ((Count/Tick))
system.cpu.dcache.tags.avgOccs::cpu.data     0.999982                       # Average percentage of cache occupancy ((Ratio/Tick))
system.cpu.dcache.tags.avgOccs::total        0.999982                       # Average percentage of cache occupancy ((Ratio/Tick))
system.cpu.dcache.tags.occupanciesTaskId::1024           16                       # Occupied blocks per task id (Count)
system.cpu.dcache.tags.ageTaskId_1024::0           16                       # Occupied blocks per task id, per block age (Count)
system.cpu.dcache.tags.ratioOccsTaskId::1024            1                       # Ratio of occupied blocks and all blocks, per task id (Ratio)
system.cpu.dcache.tags.tagAccesses           28439260                       # Number of tag accesses (Count)
system.cpu.dcache.tags.dataAccesses          28439260                       # Number of data accesses (Count)
system.cpu.dcache.tags.power_state.pwrStateResidencyTicks::UNDEFINED  28693781000                       # Cumulative time (in ticks) in various power states (Tick)
system.cpu.decode.idleCycles                  4677342                       # Number of cycles decode is idle (Cycle)
system.cpu.decode.blockedCycles              42682425                       # Number of cycles decode is blocked (Cycle)
system.cpu.decode.runCycles                   6236214                       # Number of cycles decode is running (Cycle)
system.cpu.decode.unblockCycles               2439573                       # Number of cycles decode is unblocking (Cycle)
system.cpu.decode.squashCycles                 102729                       # Number of cycles decode is squashing (Cycle)
system.cpu.decode.branchResolved              4207433                       # Number of times decode resolved a branch (Count)
system.cpu.decode.branchMispred                 13001                       # Number of times decode detected a branch misprediction (Count)
system.cpu.decode.decodedInsts               55287191                       # Number of instructions handled by decode (Count)
system.cpu.decode.squashedInsts                 64290                       # Number of squashed instructions handled by decode (Count)
system.cpu.fetch.icacheStallCycles            7549818                       # Number of cycles fetch is stalled on an Icache miss (Cycle)
system.cpu.fetch.insts                       52021621                       # Number of instructions fetch has processed (Count)
system.cpu.fetch.branches                     7715923                       # Number of branches that fetch encountered (Count)
system.cpu.fetch.predictedBranches            4988333                       # Number of branches that fetch has predicted taken (Count)
system.cpu.fetch.cycles                      48472710                       # Number of cycles fetch has run and was not squashing or blocked (Cycle)
system.cpu.fetch.squashCycles                  231436                       # Number of cycles fetch has spent squashing (Cycle)
system.cpu.fetch.miscStallCycles                    2                       # Number of cycles fetch has spent waiting on interrupts, or bad addresses, or out of MSHRs (Cycle)
system.cpu.fetch.icacheWaitRetryStallCycles           35                       # Number of stall cycles due to full MSHR (Cycle)
system.cpu.fetch.cacheLines                   6564591                       # Number of cache lines fetched (Count)
system.cpu.fetch.icacheSquashes                 43418                       # Number of outstanding Icache misses that were squashed (Count)
system.cpu.fetch.nisnDist::samples           56138283                       # Number of instructions fetched each cycle (Total) (Count)
system.cpu.fetch.nisnDist::mean              1.018035                       # Number of instructions fetched each cycle (Total) (Count)
system.cpu.fetch.nisnDist::stdev             2.327737                       # Number of instructions fetched each cycle (Total) (Count)
system.cpu.fetch.nisnDist::underflows               0      0.00%      0.00% # Number of instructions fetched each cycle (Total) (Count)
system.cpu.fetch.nisnDist::0                 44703322     79.63%     79.63% # Number of instructions fetched each cycle (Total) (Count)
system.cpu.fetch.nisnDist::1                  1262233      2.25%     81.88% # Number of instructions fetched each cycle (Total) (Count)
system.cpu.fetch.nisnDist::2                  1575574      2.81%     84.69% # Number of instructions fetched each cycle (Total) (Count)
system.cpu.fetch.nisnDist::3                  1093592      1.95%     86.63% # Number of instructions fetched each cycle (Total) (Count)
system.cpu.fetch.nisnDist::4                  1327453      2.36%     89.00% # Number of instructions fetched each cycle (Total) (Count)
system.cpu.fetch.nisnDist::5                   931110      1.66%     90.66% # Number of instructions fetched each cycle (Total) (Count)
system.cpu.fetch.nisnDist::6                   893143      1.59%     92.25% # Number of instructions fetched each cycle (Total) (Count)
system.cpu.fetch.nisnDist::7                   682461      1.22%     93.46% # Number of instructions fetched each cycle (Total) (Count)
system.cpu.fetch.nisnDist::8                  3669395      6.54%    100.00% # Number of instructions fetched each cycle (Total) (Count)
system.cpu.fetch.nisnDist::overflows                0      0.00%    100.00% # Number of instructions fetched each cycle (Total) (Count)
system.cpu.fetch.nisnDist::min_value                0                       # Number of instructions fetched each cycle (Total) (Count)
system.cpu.fetch.nisnDist::max_value                8                       # Number of instructions fetched each cycle (Total) (Count)
system.cpu.fetch.nisnDist::total             56138283                       # Number of instructions fetched each cycle (Total) (Count)
system.cpu.fetch.branchRate                  0.134453                       # Number of branch fetches per cycle (Ratio)
system.cpu.fetch.rate                        0.906496                       # Number of inst fetches per cycle ((Count/Cycle))
system.cpu.icache.demandHits::cpu.inst        6538577                       # number of demand (read+write) hits (Count)
system.cpu.icache.demandHits::total           6538577                       # number of demand (read+write) hits (Count)
system.cpu.icache.overallHits::cpu.inst       6538577                       # number of overall hits (Count)
system.cpu.icache.overallHits::total          6538577                       # number of overall hits (Count)
system.cpu.icache.demandMisses::cpu.inst        26014                       # number of demand (read+write) misses (Count)
system.cpu.icache.demandMisses::total           26014                       # number of demand (read+write) misses (Count)
system.cpu.icache.overallMisses::cpu.inst        26014                       # number of overall misses (Count)
system.cpu.icache.overallMisses::total          26014                       # number of overall misses (Count)
system.cpu.icache.demandMissLatency::cpu.inst   1162021999                       # number of demand (read+write) miss ticks (Tick)
system.cpu.icache.demandMissLatency::total   1162021999                       # number of demand (read+write) miss ticks (Tick)
system.cpu.icache.overallMissLatency::cpu.inst   1162021999                       # number of overall miss ticks (Tick)
system.cpu.icache.overallMissLatency::total   1162021999                       # number of overall miss ticks (Tick)
system.cpu.icache.demandAccesses::cpu.inst      6564591                       # number of demand (read+write) accesses (Count)
system.cpu.icache.demandAccesses::total       6564591                       # number of demand (read+write) accesses (Count)
system.cpu.icache.overallAccesses::cpu.inst      6564591                       # number of overall (read+write) accesses (Count)
system.cpu.icache.overallAccesses::total      6564591                       # number of overall (read+write) accesses (Count)
system.cpu.icache.demandMissRate::cpu.inst     0.003963                       # miss rate for demand accesses (Ratio)
system.cpu.icache.demandMissRate::total      0.003963                       # miss rate for demand accesses (Ratio)
system.cpu.icache.overallMissRate::cpu.inst     0.003963                       # miss rate for overall accesses (Ratio)
system.cpu.icache.overallMissRate::total     0.003963                       # miss rate for overall accesses (Ratio)
system.cpu.icache.demandAvgMissLatency::cpu.inst 44669.101215                       # average overall miss latency ((Cycle/Count))
system.cpu.icache.demandAvgMissLatency::total 44669.101215                       # average overall miss latency ((Cycle/Count))
system.cpu.icache.overallAvgMissLatency::cpu.inst 44669.101215                       # average overall miss latency ((Cycle/Count))
system.cpu.icache.overallAvgMissLatency::total 44669.101215                       # average overall miss latency ((Cycle/Count))
system.cpu.icache.blockedCycles::no_mshrs          615                       # number of cycles access was blocked (Cycle)
system.cpu.icache.blockedCycles::no_targets            0                       # number of cycles access was blocked (Cycle)
system.cpu.icache.blockedCauses::no_mshrs           12                       # number of times access was blocked (Count)
system.cpu.icache.blockedCauses::no_targets            0                       # number of times access was blocked (Count)
system.cpu.icache.avgBlocked::no_mshrs      51.250000                       # average number of cycles each access was blocked ((Cycle/Count))
system.cpu.icache.avgBlocked::no_targets          nan                       # average number of cycles each access was blocked ((Cycle/Count))
system.cpu.icache.writebacks::writebacks        25091                       # number of writebacks (Count)
system.cpu.icache.writebacks::total             25091                       # number of writebacks (Count)
system.cpu.icache.demandMshrHits::cpu.inst          438                       # number of demand (read+write) MSHR hits (Count)
system.cpu.icache.demandMshrHits::total           438                       # number of demand (read+write) MSHR hits (Count)
system.cpu.icache.overallMshrHits::cpu.inst          438                       # number of overall MSHR hits (Count)
system.cpu.icache.overallMshrHits::total          438                       # number of overall MSHR hits (Count)
system.cpu.icache.demandMshrMisses::cpu.inst        25576                       # number of demand (read+write) MSHR misses (Count)
system.cpu.icache.demandMshrMisses::total        25576                       # number of demand (read+write) MSHR misses (Count)
system.cpu.icache.overallMshrMisses::cpu.inst        25576                       # number of overall MSHR misses (Count)
system.cpu.icache.overallMshrMisses::total        25576                       # number of overall MSHR misses (Count)
system.cpu.icache.demandMshrMissLatency::cpu.inst   1117436999                       # number of demand (read+write) MSHR miss ticks (Tick)
system.cpu.icache.demandMshrMissLatency::total   1117436999                       # number of demand (read+write) MSHR miss ticks (Tick)
system.cpu.icache.overallMshrMissLatency::cpu.inst   1117436999                       # number of overall MSHR miss ticks (Tick)
system.cpu.icache.overallMshrMissLatency::total   1117436999                       # number of overall MSHR miss ticks (Tick)
system.cpu.icache.demandMshrMissRate::cpu.inst     0.003896                       # mshr miss ratio for demand accesses (Ratio)
system.cpu.icache.demandMshrMissRate::total     0.003896                       # mshr miss ratio for demand accesses (Ratio)
system.cpu.icache.overallMshrMissRate::cpu.inst     0.003896                       # mshr miss ratio for overall accesses (Ratio)
system.cpu.icache.overallMshrMissRate::total     0.003896                       # mshr miss ratio for overall accesses (Ratio)
system.cpu.icache.demandAvgMshrMissLatency::cpu.inst 43690.842939                       # average overall mshr miss latency ((Cycle/Count))
system.cpu.icache.demandAvgMshrMissLatency::total 43690.842939                       # average overall mshr miss latency ((Cycle/Count))
system.cpu.icache.overallAvgMshrMissLatency::cpu.inst 43690.842939                       # average overall mshr miss latency ((Cycle/Count))
system.cpu.icache.overallAvgMshrMissLatency::total 43690.842939                       # average overall mshr miss latency ((Cycle/Count))
system.cpu.icache.replacements                  25091                       # number of replacements (Count)
system.cpu.icache.ReadReq.hits::cpu.inst      6538577                       # number of ReadReq hits (Count)
system.cpu.icache.ReadReq.hits::total         6538577                       # number of ReadReq hits (Count)
system.cpu.icache.ReadReq.misses::cpu.inst        26014                       # number of ReadReq misses (Count)
system.cpu.icache.ReadReq.misses::total         26014                       # number of ReadReq misses (Count)
system.cpu.icache.ReadReq.missLatency::cpu.inst   1162021999                       # number of ReadReq miss ticks (Tick)
system.cpu.icache.ReadReq.missLatency::total   1162021999                       # number of ReadReq miss ticks (Tick)
system.cpu.icache.ReadReq.accesses::cpu.inst      6564591                       # number of ReadReq accesses(hits+misses) (Count)
system.cpu.icache.ReadReq.accesses::total      6564591                       # number of ReadReq accesses(hits+misses) (Count)
system.cpu.icache.ReadReq.missRate::cpu.inst     0.003963                       # miss rate for ReadReq accesses (Ratio)
system.cpu.icache.ReadReq.missRate::total     0.003963                       # miss rate for ReadReq accesses (Ratio)
system.cpu.icache.ReadReq.avgMissLatency::cpu.inst 44669.101215                       # average ReadReq miss latency ((Tick/Count))
system.cpu.icache.ReadReq.avgMissLatency::total 44669.101215                       # average ReadReq miss latency ((Tick/Count))
system.cpu.icache.ReadReq.mshrHits::cpu.inst          438                       # number of ReadReq MSHR hits (Count)
system.cpu.icache.ReadReq.mshrHits::total          438                       # number of ReadReq MSHR hits (Count)
system.cpu.icache.ReadReq.mshrMisses::cpu.inst        25576                       # number of ReadReq MSHR misses (Count)
system.cpu.icache.ReadReq.mshrMisses::total        25576                       # number of ReadReq MSHR misses (Count)
system.cpu.icache.ReadReq.mshrMissLatency::cpu.inst   1117436999                       # number of ReadReq MSHR miss ticks (Tick)
system.cpu.icache.ReadReq.mshrMissLatency::total   1117436999                       # number of ReadReq MSHR miss ticks (Tick)
system.cpu.icache.ReadReq.mshrMissRate::cpu.inst     0.003896                       # mshr miss rate for ReadReq accesses (Ratio)
system.cpu.icache.ReadReq.mshrMissRate::total     0.003896                       # mshr miss rate for ReadReq accesses (Ratio)
system.cpu.icache.ReadReq.avgMshrMissLatency::cpu.inst 43690.842939                       # average ReadReq mshr miss latency ((Tick/Count))
system.cpu.icache.ReadReq.avgMshrMissLatency::total 43690.842939                       # average ReadReq mshr miss latency ((Tick/Count))
system.cpu.icache.power_state.pwrStateResidencyTicks::UNDEFINED  28693781000                       # Cumulative time (in ticks) in various power states (Tick)
system.cpu.icache.tags.tagsInUse           415.126717                       # Average ticks per tags in use ((Tick/Count))
system.cpu.icache.tags.totalRefs              6564152                       # Total number of references to valid blocks. (Count)
system.cpu.icache.tags.sampledRefs              25575                       # Sample count of references to valid blocks. (Count)
system.cpu.icache.tags.avgRefs             256.662835                       # Average number of references to valid blocks. ((Count/Count))
system.cpu.icache.tags.warmupTick               77000                       # The tick when the warmup percentage was hit. (Tick)
system.cpu.icache.tags.occupancies::cpu.inst   415.126717                       # Average occupied blocks per tick, per requestor ((Count/Tick))
system.cpu.icache.tags.avgOccs::cpu.inst     0.810794                       # Average percentage of cache occupancy ((Ratio/Tick))
system.cpu.icache.tags.avgOccs::total        0.810794                       # Average percentage of cache occupancy ((Ratio/Tick))
system.cpu.icache.tags.occupanciesTaskId::1024          484                       # Occupied blocks per task id (Count)
system.cpu.icache.tags.ageTaskId_1024::0          134                       # Occupied blocks per task id, per block age (Count)
system.cpu.icache.tags.ageTaskId_1024::1           26                       # Occupied blocks per task id, per block age (Count)
system.cpu.icache.tags.ageTaskId_1024::3           74                       # Occupied blocks per task id, per block age (Count)
system.cpu.icache.tags.ageTaskId_1024::4          250                       # Occupied blocks per task id, per block age (Count)
system.cpu.icache.tags.ratioOccsTaskId::1024     0.945312                       # Ratio of occupied blocks and all blocks, per task id (Ratio)
system.cpu.icache.tags.tagAccesses           13154757                       # Number of tag accesses (Count)
system.cpu.icache.tags.dataAccesses          13154757                       # Number of data accesses (Count)
system.cpu.icache.tags.power_state.pwrStateResidencyTicks::UNDEFINED  28693781000                       # Cumulative time (in ticks) in various power states (Tick)
system.cpu.iew.idleCycles                           0                       # Number of cycles IEW is idle (Cycle)
system.cpu.iew.squashCycles                    102729                       # Number of cycles IEW is squashing (Cycle)
[...]
system.mem_ctrls.dram.bwRead::cpu.inst       57045950                       # Total read bandwidth from this memory ((Byte/Second))
system.mem_ctrls.dram.bwRead::cpu.data     2000174742                       # Total read bandwidth from this memory ((Byte/Second))
system.mem_ctrls.dram.bwRead::total        2057220692                       # Total read bandwidth from this memory ((Byte/Second))
system.mem_ctrls.dram.bwInstRead::cpu.inst     57045950                       # Instruction read bandwidth from this memory ((Byte/Second))
system.mem_ctrls.dram.bwInstRead::total      57045950                       # Instruction read bandwidth from this memory ((Byte/Second))
system.mem_ctrls.dram.bwWrite::writebacks    904750197                       # Write bandwidth from this memory ((Byte/Second))
system.mem_ctrls.dram.bwWrite::total        904750197                       # Write bandwidth from this memory ((Byte/Second))
system.mem_ctrls.dram.bwTotal::writebacks    904750197                       # Total bandwidth to/from this memory ((Byte/Second))
system.mem_ctrls.dram.bwTotal::cpu.inst      57045950                       # Total bandwidth to/from this memory ((Byte/Second))
system.mem_ctrls.dram.bwTotal::cpu.data    2000174742                       # Total bandwidth to/from this memory ((Byte/Second))
system.mem_ctrls.dram.bwTotal::total       2961970888                       # Total bandwidth to/from this memory ((Byte/Second))
system.mem_ctrls.dram.readBursts               589928                       # Number of DRAM read bursts (Count)
system.mem_ctrls.dram.writeBursts              189330                       # Number of DRAM write bursts (Count)
system.mem_ctrls.dram.perBankRdBursts::0        76694                       # Per bank write bursts (Count)
system.mem_ctrls.dram.perBankRdBursts::1        81925                       # Per bank write bursts (Count)
system.mem_ctrls.dram.perBankRdBursts::2       112955                       # Per bank write bursts (Count)
system.mem_ctrls.dram.perBankRdBursts::3        62954                       # Per bank write bursts (Count)
system.mem_ctrls.dram.perBankRdBursts::4         2324                       # Per bank write bursts (Count)
system.mem_ctrls.dram.perBankRdBursts::5         4301                       # Per bank write bursts (Count)
system.mem_ctrls.dram.perBankRdBursts::6        11548                       # Per bank write bursts (Count)
system.mem_ctrls.dram.perBankRdBursts::7         4200                       # Per bank write bursts (Count)
system.mem_ctrls.dram.perBankRdBursts::8        11949                       # Per bank write bursts (Count)
system.mem_ctrls.dram.perBankRdBursts::9        31863                       # Per bank write bursts (Count)
system.mem_ctrls.dram.perBankRdBursts::10        23685                       # Per bank write bursts (Count)
system.mem_ctrls.dram.perBankRdBursts::11        19152                       # Per bank write bursts (Count)
system.mem_ctrls.dram.perBankRdBursts::12        80654                       # Per bank write bursts (Count)
system.mem_ctrls.dram.perBankRdBursts::13        21219                       # Per bank write bursts (Count)
system.mem_ctrls.dram.perBankRdBursts::14        24126                       # Per bank write bursts (Count)
system.mem_ctrls.dram.perBankRdBursts::15        20379                       # Per bank write bursts (Count)
system.mem_ctrls.dram.perBankWrBursts::0         1461                       # Per bank write bursts (Count)
system.mem_ctrls.dram.perBankWrBursts::1          534                       # Per bank write bursts (Count)
system.mem_ctrls.dram.perBankWrBursts::2       123485                       # Per bank write bursts (Count)
system.mem_ctrls.dram.perBankWrBursts::3        35494                       # Per bank write bursts (Count)
system.mem_ctrls.dram.perBankWrBursts::4          739                       # Per bank write bursts (Count)
system.mem_ctrls.dram.perBankWrBursts::5          631                       # Per bank write bursts (Count)
system.mem_ctrls.dram.perBankWrBursts::6         8651                       # Per bank write bursts (Count)
system.mem_ctrls.dram.perBankWrBursts::7          550                       # Per bank write bursts (Count)
system.mem_ctrls.dram.perBankWrBursts::8         7305                       # Per bank write bursts (Count)
system.mem_ctrls.dram.perBankWrBursts::9          563                       # Per bank write bursts (Count)
system.mem_ctrls.dram.perBankWrBursts::10          570                       # Per bank write bursts (Count)
system.mem_ctrls.dram.perBankWrBursts::11          662                       # Per bank write bursts (Count)
system.mem_ctrls.dram.perBankWrBursts::12         1248                       # Per bank write bursts (Count)
system.mem_ctrls.dram.perBankWrBursts::13         2461                       # Per bank write bursts (Count)
system.mem_ctrls.dram.perBankWrBursts::14         2455                       # Per bank write bursts (Count)
system.mem_ctrls.dram.perBankWrBursts::15         2521                       # Per bank write bursts (Count)
system.mem_ctrls.dram.totQLat              7639245750                       # Total ticks spent queuing (Tick)
system.mem_ctrls.dram.totBusLat            2949640000                       # Total ticks spent in databus transfers (Tick)
system.mem_ctrls.dram.totMemAccLat        18700395750                       # Total ticks spent from burst creation until serviced by the DRAM (Tick)
system.mem_ctrls.dram.avgQLat                12949.45                       # Average queueing delay per DRAM burst ((Tick/Count))
system.mem_ctrls.dram.avgBusLat               5000.00                       # Average bus latency per DRAM burst ((Tick/Count))
system.mem_ctrls.dram.avgMemAccLat           31699.45                       # Average memory access latency per DRAM burst ((Tick/Count))
system.mem_ctrls.dram.readRowHits              489230                       # Number of row buffer hits during reads (Count)
system.mem_ctrls.dram.writeRowHits             176093                       # Number of row buffer hits during writes (Count)
system.mem_ctrls.dram.readRowHitRate            82.93                       # Row buffer hit rate for reads (Ratio)
system.mem_ctrls.dram.writeRowHitRate           93.01                       # Row buffer hit rate for writes (Ratio)
system.mem_ctrls.dram.bytesPerActivate::samples       113924                       # Bytes accessed per row activation (Byte)
system.mem_ctrls.dram.bytesPerActivate::mean   437.753731                       # Bytes accessed per row activation (Byte)
system.mem_ctrls.dram.bytesPerActivate::gmean   265.430820                       # Bytes accessed per row activation (Byte)
system.mem_ctrls.dram.bytesPerActivate::stdev   392.817215                       # Bytes accessed per row activation (Byte)
system.mem_ctrls.dram.bytesPerActivate::0-127        22772     19.99%     19.99% # Bytes accessed per row activation (Byte)
system.mem_ctrls.dram.bytesPerActivate::128-255        36733     32.24%     52.23% # Bytes accessed per row activation (Byte)
system.mem_ctrls.dram.bytesPerActivate::256-383         7856      6.90%     59.13% # Bytes accessed per row activation (Byte)
system.mem_ctrls.dram.bytesPerActivate::384-511         4749      4.17%     63.30% # Bytes accessed per row activation (Byte)
system.mem_ctrls.dram.bytesPerActivate::512-639         3626      3.18%     66.48% # Bytes accessed per row activation (Byte)
system.mem_ctrls.dram.bytesPerActivate::640-767         4349      3.82%     70.30% # Bytes accessed per row activation (Byte)
system.mem_ctrls.dram.bytesPerActivate::768-895         2724      2.39%     72.69% # Bytes accessed per row activation (Byte)
system.mem_ctrls.dram.bytesPerActivate::896-1023         1689      1.48%     74.17% # Bytes accessed per row activation (Byte)
system.mem_ctrls.dram.bytesPerActivate::1024-1151        29426     25.83%    100.00% # Bytes accessed per row activation (Byte)
system.mem_ctrls.dram.bytesPerActivate::total       113924                       # Bytes accessed per row activation (Byte)
system.mem_ctrls.dram.bytesRead              37755392                       # Total bytes read (Byte)
system.mem_ctrls.dram.bytesWritten           12117120                       # Total bytes written (Byte)
system.mem_ctrls.dram.avgRdBW             1315.804006                       # Average DRAM read bandwidth in MiBytes/s ((Byte/Second))
system.mem_ctrls.dram.avgWrBW              422.290809                       # Average DRAM write bandwidth in MiBytes/s ((Byte/Second))
system.mem_ctrls.dram.peakBW                 12800.00                       # Theoretical peak bandwidth in MiByte/s ((Byte/Second))
system.mem_ctrls.dram.busUtil                   13.58                       # Data bus utilization in percentage (Ratio)
system.mem_ctrls.dram.busUtilRead               10.28                       # Data bus utilization in percentage for reads (Ratio)
system.mem_ctrls.dram.busUtilWrite               3.30                       # Data bus utilization in percentage for writes (Ratio)
system.mem_ctrls.dram.pageHitRate               85.38                       # Row buffer hit rate, read and write combined (Ratio)
system.mem_ctrls.dram.power_state.pwrStateResidencyTicks::UNDEFINED  28693781000                       # Cumulative time (in ticks) in various power states (Tick)
system.mem_ctrls.dram.rank0.actEnergy       561204000                       # Energy for activate commands per rank (pJ) (Joule)
system.mem_ctrls.dram.rank0.preEnergy       298268025                       # Energy for precharge commands per rank (pJ) (Joule)
system.mem_ctrls.dram.rank0.readEnergy     2548273140                       # Energy for read commands per rank (pJ) (Joule)
system.mem_ctrls.dram.rank0.writeEnergy     895464900                       # Energy for write commands per rank (pJ) (Joule)
system.mem_ctrls.dram.rank0.refreshEnergy 2264948400.000000                       # Energy for refresh commands per rank (pJ) (Joule)
system.mem_ctrls.dram.rank0.actBackEnergy  12829536630                       # Energy for active background per rank (pJ) (Joule)
system.mem_ctrls.dram.rank0.preBackEnergy    214591680                       # Energy for precharge background per rank (pJ) (Joule)
system.mem_ctrls.dram.rank0.actPowerDownEnergy            0                       # Energy for active power-down per rank (pJ) (Joule)
system.mem_ctrls.dram.rank0.prePowerDownEnergy            0                       # Energy for precharge power-down per rank (pJ) (Joule)
system.mem_ctrls.dram.rank0.selfRefreshEnergy            0                       # Energy for self refresh per rank (pJ) (Joule)
system.mem_ctrls.dram.rank0.totalEnergy   19612286775                       # Total energy per rank (pJ) (Joule)
system.mem_ctrls.dram.rank0.averagePower   683.503048                       # Core power per rank (mW) (Watt)
system.mem_ctrls.dram.rank0.totalIdleTime            0                       # Total Idle time Per DRAM Rank (Tick)
system.mem_ctrls.dram.rank0.pwrStateTime::IDLE    448089750                       # Time in different power states (Tick)
system.mem_ctrls.dram.rank0.pwrStateTime::REF    958100000                       # Time in different power states (Tick)
system.mem_ctrls.dram.rank0.pwrStateTime::SREF            0                       # Time in different power states (Tick)
system.mem_ctrls.dram.rank0.pwrStateTime::PRE_PDN            0                       # Time in different power states (Tick)
system.mem_ctrls.dram.rank0.pwrStateTime::ACT  27287591250                       # Time in different power states (Tick)
system.mem_ctrls.dram.rank0.pwrStateTime::ACT_PDN            0                       # Time in different power states (Tick)
system.mem_ctrls.dram.rank1.actEnergy       252291900                       # Energy for activate commands per rank (pJ) (Joule)
system.mem_ctrls.dram.rank1.preEnergy       134073555                       # Energy for precharge commands per rank (pJ) (Joule)
system.mem_ctrls.dram.rank1.readEnergy     1663812780                       # Energy for read commands per rank (pJ) (Joule)
system.mem_ctrls.dram.rank1.writeEnergy      92837700                       # Energy for write commands per rank (pJ) (Joule)
system.mem_ctrls.dram.rank1.refreshEnergy 2264948400.000000                       # Energy for refresh commands per rank (pJ) (Joule)
system.mem_ctrls.dram.rank1.actBackEnergy  12701017020                       # Energy for active background per rank (pJ) (Joule)
system.mem_ctrls.dram.rank1.preBackEnergy    322818720                       # Energy for precharge background per rank (pJ) (Joule)
system.mem_ctrls.dram.rank1.actPowerDownEnergy            0                       # Energy for active power-down per rank (pJ) (Joule)
system.mem_ctrls.dram.rank1.prePowerDownEnergy            0                       # Energy for precharge power-down per rank (pJ) (Joule)
system.mem_ctrls.dram.rank1.selfRefreshEnergy            0                       # Energy for self refresh per rank (pJ) (Joule)
system.mem_ctrls.dram.rank1.totalEnergy   17431800075                       # Total energy per rank (pJ) (Joule)
system.mem_ctrls.dram.rank1.averagePower   607.511435                       # Core power per rank (mW) (Watt)
system.mem_ctrls.dram.rank1.totalIdleTime            0                       # Total Idle time Per DRAM Rank (Tick)
system.mem_ctrls.dram.rank1.pwrStateTime::IDLE    737518000                       # Time in different power states (Tick)
system.mem_ctrls.dram.rank1.pwrStateTime::REF    958100000                       # Time in different power states (Tick)
system.mem_ctrls.dram.rank1.pwrStateTime::SREF            0                       # Time in different power states (Tick)
system.mem_ctrls.dram.rank1.pwrStateTime::PRE_PDN            0                       # Time in different power states (Tick)
system.mem_ctrls.dram.rank1.pwrStateTime::ACT  26998163000                       # Time in different power states (Tick)
system.mem_ctrls.dram.rank1.pwrStateTime::ACT_PDN            0                       # Time in different power states (Tick)
system.mem_ctrls.power_state.pwrStateResidencyTicks::UNDEFINED  28693781000                       # Cumulative time (in ticks) in various power states (Tick)
system.membus.transDist::ReadResp              669627                       # Transaction distribution (Count)
system.membus.transDist::WritebackDirty        405636                       # Transaction distribution (Count)
system.membus.transDist::WritebackClean         25091                       # Transaction distribution (Count)
system.membus.transDist::CleanEvict            508656                       # Transaction distribution (Count)
system.membus.transDist::ReadExReq             252707                       # Transaction distribution (Count)
system.membus.transDist::ReadExResp            252707                       # Transaction distribution (Count)
system.membus.transDist::ReadCleanReq           25576                       # Transaction distribution (Count)
system.membus.transDist::ReadSharedReq         644052                       # Transaction distribution (Count)
system.membus.transDist::InvalidateReq          17549                       # Transaction distribution (Count)
system.membus.pktCount_system.cpu.icache.mem_side_port::system.mem_ctrls.port        76242                       # Packet count per connected requestor and responder (Count)
system.membus.pktCount_system.cpu.dcache.mem_side_port::system.mem_ctrls.port      2725359                       # Packet count per connected requestor and responder (Count)
system.membus.pktCount::total                 2801601                       # Packet count per connected requestor and responder (Count)
system.membus.pktSize_system.cpu.icache.mem_side_port::system.mem_ctrls.port      3242624                       # Cumulative packet size per connected requestor and responder (Byte)
system.membus.pktSize_system.cpu.dcache.mem_side_port::system.mem_ctrls.port     83353280                       # Cumulative packet size per connected requestor and responder (Byte)
system.membus.pktSize::total                 86595904                       # Cumulative packet size per connected requestor and responder (Byte)
system.membus.snoops                                0                       # Total snoops (Count)
system.membus.snoopTraffic                          0                       # Total snoop traffic (Byte)
system.membus.snoopFanout::samples             939884                       # Request fanout histogram (Count)
system.membus.snoopFanout::mean              0.000001                       # Request fanout histogram (Count)
system.membus.snoopFanout::stdev             0.001031                       # Request fanout histogram (Count)
system.membus.snoopFanout::underflows               0      0.00%      0.00% # Request fanout histogram (Count)
system.membus.snoopFanout::0                   939883    100.00%    100.00% # Request fanout histogram (Count)
system.membus.snoopFanout::1                        1      0.00%    100.00% # Request fanout histogram (Count)
system.membus.snoopFanout::2                        0      0.00%    100.00% # Request fanout histogram (Count)
system.membus.snoopFanout::overflows                0      0.00%    100.00% # Request fanout histogram (Count)
system.membus.snoopFanout::min_value                0                       # Request fanout histogram (Count)
system.membus.snoopFanout::max_value                1                       # Request fanout histogram (Count)
system.membus.snoopFanout::total               939884                       # Request fanout histogram (Count)
system.membus.power_state.pwrStateResidencyTicks::UNDEFINED  28693781000                       # Cumulative time (in ticks) in various power states (Tick)
system.membus.reqLayer0.occupancy          3753542250                       # Layer occupancy (ticks) (Tick)
system.membus.reqLayer0.utilization               0.1                       # Layer utilization (Ratio)
system.membus.respLayer1.occupancy          133679560                       # Layer occupancy (ticks) (Tick)
system.membus.respLayer1.utilization              0.0                       # Layer utilization (Ratio)
system.membus.respLayer2.occupancy         4636674250                       # Layer occupancy (ticks) (Tick)
system.membus.respLayer2.utilization              0.2                       # Layer utilization (Ratio)
system.membus.snoop_filter.totRequests        1879269                       # Total number of requests made to the snoop filter. (Count)
system.membus.snoop_filter.hitSingleRequests       939385                       # Number of requests hitting in the snoop filter with a single holder of the requested data. (Count)
system.membus.snoop_filter.hitMultiRequests            1                       # Number of requests hitting in the snoop filter with multiple (>1) holders of the requested data. (Count)
system.membus.snoop_filter.totSnoops                0                       # Total number of snoops made to the snoop filter. (Count)
system.membus.snoop_filter.hitSingleSnoops            0                       # Number of snoops hitting in the snoop filter with a single holder of the requested data. (Count)
system.membus.snoop_filter.hitMultiSnoops            0                       # Number of snoops hitting in the snoop filter with multiple (>1) holders of the requested data. (Count)
system.voltage_domain.voltage                       1                       # Voltage in Volts (Volt)
system.workload.inst.arm                            0                       # number of arm instructions executed (Count)
system.workload.inst.quiesce                        0                       # number of quiesce instructions executed (Count)

---------- End Simulation Statistics   ----------
