
---------- Begin Simulation Statistics ----------
simSeconds                                   0.017929                       # Number of seconds simulated (Second)
simTicks                                  17929220500                       # Number of ticks simulated (Tick)
finalTick                                 17929220500                       # Number of ticks from beginning of simulation (restored from checkpoints and never reset) (Tick)
simFreq                                  1000000000000                       # The number of ticks per simulated second ((Tick/Second))
hostSeconds                                     75.86                       # Real time elapsed on the host (Second)
hostTickRate                                236344937                       # The number of ticks simulated per host second (ticks/s) ((Tick/Second))
hostMemory                                     671944                       # Number of bytes of host memory used (Byte)
simInsts                                     46326279                       # Number of instructions simulated (Count)
simOps                                       50666649                       # Number of ops (including micro ops) simulated (Count)
hostInstRate                                   610678                       # Simulator instruction rate (inst/s) ((Count/Second))
hostOpRate                                     667893                       # Simulator op (including micro ops) rate (op/s) ((Count/Second))
system.clk_domain.clock                          1000                       # Clock period in ticks (Tick)
system.cpu.numCycles                         35858443                       # Number of cpu cycles simulated (Cycle)
system.cpu.numWorkItemsStarted                      0                       # Number of work items this cpu started (Count)
system.cpu.numWorkItemsCompleted                    0                       # Number of work items this cpu completed (Count)
system.cpu.instsAdded                        54053355                       # Number of instructions added to the IQ (excludes non-spec) (Count)
system.cpu.nonSpecInstsAdded                     4206                       # Number of non-speculative instructions added to the IQ (Count)
system.cpu.instsIssued                       53716861                       # Number of instructions issued (Count)
system.cpu.squashedInstsIssued                  52988                       # Number of squashed instructions issued (Count)
system.cpu.squashedInstsExamined              3390911                       # Number of squashed instructions iterated over during squash; mainly for profiling (Count)
system.cpu.squashedOperandsExamined           2930813                       # Number of squashed operands that are examined and possibly removed from graph (Count)
system.cpu.squashedNonSpecRemoved                  35                       # Number of squashed non-spec instructions that were removed (Count)
system.cpu.numIssuedDist::samples            35431867                       # Number of insts issued each cycle (Count)
system.cpu.numIssuedDist::mean               1.516061                       # Number of insts issued each cycle (Count)
system.cpu.numIssuedDist::stdev              2.022855                       # Number of insts issued each cycle (Count)
system.cpu.numIssuedDist::underflows                0      0.00%      0.00% # Number of insts issued each cycle (Count)
system.cpu.numIssuedDist::0                  18261387     51.54%     51.54% # Number of insts issued each cycle (Count)
system.cpu.numIssuedDist::1                   4033240     11.38%     62.92% # Number of insts issued each cycle (Count)
system.cpu.numIssuedDist::2                   3607945     10.18%     73.11% # Number of insts issued each cycle (Count)
system.cpu.numIssuedDist::3                   3054475      8.62%     81.73% # Number of insts issued each cycle (Count)
system.cpu.numIssuedDist::4                   2482597      7.01%     88.73% # Number of insts issued each cycle (Count)
system.cpu.numIssuedDist::5                   1939234      5.47%     94.21% # Number of insts issued each cycle (Count)
system.cpu.numIssuedDist::6                   1033307      2.92%     97.12% # Number of insts issued each cycle (Count)
system.cpu.numIssuedDist::7                    679550      1.92%     99.04% # Number of insts issued each cycle (Count)
system.cpu.numIssuedDist::8                    340132      0.96%    100.00% # Number of insts issued each cycle (Count)
system.cpu.numIssuedDist::overflows                 0      0.00%    100.00% # Number of insts issued each cycle (Count)
system.cpu.numIssuedDist::min_value                 0                       # Number of insts issued each cycle (Count)
system.cpu.numIssuedDist::max_value                 8                       # Number of insts issued each cycle (Count)
system.cpu.numIssuedDist::total              35431867                       # Number of insts issued each cycle (Count)
system.cpu.statFuBusy::No_OpClass                   0      0.00%      0.00% # attempts to use FU when none available (Count)
system.cpu.statFuBusy::IntAlu                  401514     38.60%     38.60% # attempts to use FU when none available (Count)
system.cpu.statFuBusy::IntMult                  81467      7.83%     46.43% # attempts to use FU when none available (Count)
system.cpu.statFuBusy::IntDiv                       0      0.00%     46.43% # attempts to use FU when none available (Count)
system.cpu.statFuBusy::FloatAdd                     0      0.00%     46.43% # attempts to use FU when none available (Count)
system.cpu.statFuBusy::FloatCmp                     0      0.00%     46.43% # attempts to use FU when none available (Count)
system.cpu.statFuBusy::FloatCvt                     0      0.00%     46.43% # attempts to use FU when none available (Count)
system.cpu.statFuBusy::FloatMult                    0      0.00%     46.43% # attempts to use FU when none available (Count)
system.cpu.statFuBusy::FloatMultAcc                 0      0.00%     46.43% # attempts to use FU when none available (Count)
system.cpu.statFuBusy::FloatDiv                     0      0.00%     46.43% # attempts to use FU when none available (Count)
system.cpu.statFuBusy::FloatMisc                    0      0.00%     46.43% # attempts to use FU when none available (Count)
system.cpu.statFuBusy::FloatSqrt                    0      0.00%     46.43% # attempts to use FU when none available (Count)
system.cpu.statFuBusy::SimdAdd                      0      0.00%     46.43% # attempts to use FU when none available (Count)
system.cpu.statFuBusy::SimdAddAcc                   0      0.00%     46.43% # attempts to use FU when none available (Count)
system.cpu.statFuBusy::SimdAlu                    401      0.04%     46.47% # attempts to use FU when none available (Count)
system.cpu.statFuBusy::SimdCmp                   4020      0.39%     46.85% # attempts to use FU when none available (Count)
system.cpu.statFuBusy::SimdCvt                      0      0.00%     46.85% # attempts to use FU when none available (Count)
system.cpu.statFuBusy::SimdMisc                     0      0.00%     46.85% # attempts to use FU when none available (Count)
system.cpu.statFuBusy::SimdMult                     0      0.00%     46.85% # attempts to use FU when none available (Count)
system.cpu.statFuBusy::SimdMultAcc                  0      0.00%     46.85% # attempts to use FU when none available (Count)
system.cpu.statFuBusy::SimdShift                    0      0.00%     46.85% # attempts to use FU when none available (Count)
system.cpu.statFuBusy::SimdShiftAcc                 0      0.00%     46.85% # attempts to use FU when none available (Count)
system.cpu.statFuBusy::SimdDiv                      0      0.00%     46.85% # attempts to use FU when none available (Count)
system.cpu.statFuBusy::SimdSqrt                     0      0.00%     46.85% # attempts to use FU when none available (Count)
system.cpu.statFuBusy::SimdFloatAdd                 0      0.00%     46.85% # attempts to use FU when none available (Count)
system.cpu.statFuBusy::SimdFloatAlu                 0      0.00%     46.85% # attempts to use FU when none available (Count)
system.cpu.statFuBusy::SimdFloatCmp                 0      0.00%     46.85% # attempts to use FU when none available (Count)
system.cpu.statFuBusy::SimdFloatCvt                 0      0.00%     46.85% # attempts to use FU when none available (Count)
system.cpu.statFuBusy::SimdFloatDiv                 0      0.00%     46.85% # attempts to use FU when none available (Count)
system.cpu.statFuBusy::SimdFloatMisc                0      0.00%     46.85% # attempts to use FU when none available (Count)
system.cpu.statFuBusy::SimdFloatMult                0      0.00%     46.85% # attempts to use FU when none available (Count)
system.cpu.statFuBusy::SimdFloatMultAcc             0      0.00%     46.85% # attempts to use FU when none available (Count)
system.cpu.statFuBusy::SimdFloatSqrt                0      0.00%     46.85% # attempts to use FU when none available (Count)
system.cpu.statFuBusy::SimdReduceAdd                0      0.00%     46.85% # attempts to use FU when none available (Count)
system.cpu.statFuBusy::SimdReduceAlu                0      0.00%     46.85% # attempts to use FU when none available (Count)
system.cpu.statFuBusy::SimdReduceCmp                0      0.00%     46.85% # attempts to use FU when none available (Count)
system.cpu.statFuBusy::SimdFloatReduceAdd            0      0.00%     46.85% # attempts to use FU when none available (Count)
system.cpu.statFuBusy::SimdFloatReduceCmp            0      0.00%     46.85% # attempts to use FU when none available (Count)
system.cpu.statFuBusy::SimdAes                      0      0.00%     46.85% # attempts to use FU when none available (Count)
system.cpu.statFuBusy::SimdAesMix                   0      0.00%     46.85% # attempts to use FU when none available (Count)
system.cpu.statFuBusy::SimdSha1Hash                 0      0.00%     46.85% # attempts to use FU when none available (Count)
system.cpu.statFuBusy::SimdSha1Hash2                0      0.00%     46.85% # attempts to use FU when none available (Count)
system.cpu.statFuBusy::SimdSha256Hash               0      0.00%     46.85% # attempts to use FU when none available (Count)
system.cpu.statFuBusy::SimdSha256Hash2              0      0.00%     46.85% # attempts to use FU when none available (Count)
system.cpu.statFuBusy::SimdShaSigma2                0      0.00%     46.85% # attempts to use FU when none available (Count)
system.cpu.statFuBusy::SimdShaSigma3                0      0.00%     46.85% # attempts to use FU when none available (Count)
system.cpu.statFuBusy::SimdPredAlu                  0      0.00%     46.85% # attempts to use FU when none available (Count)
system.cpu.statFuBusy::MemRead                 393575     37.83%     84.69% # attempts to use FU when none available (Count)
system.cpu.statFuBusy::MemWrite                159319     15.31%    100.00% # attempts to use FU when none available (Count)
system.cpu.statFuBusy::FloatMemRead                 0      0.00%    100.00% # attempts to use FU when none available (Count)
system.cpu.statFuBusy::FloatMemWrite                0      0.00%    100.00% # attempts to use FU when none available (Count)
system.cpu.statFuBusy::IprAccess                    0      0.00%    100.00% # attempts to use FU when none available (Count)
system.cpu.statFuBusy::InstPrefetch                 0      0.00%    100.00% # attempts to use FU when none available (Count)
system.cpu.statIssuedInstType_0::No_OpClass        27868      0.05%      0.05% # Number of instructions issued per FU type, per thread (Count)
system.cpu.statIssuedInstType_0::IntAlu      33995549     63.29%     63.34% # Number of instructions issued per FU type, per thread (Count)
system.cpu.statIssuedInstType_0::IntMult       641612      1.19%     64.53% # Number of instructions issued per FU type, per thread (Count)
system.cpu.statIssuedInstType_0::IntDiv        154522      0.29%     64.82% # Number of instructions issued per FU type, per thread (Count)
system.cpu.statIssuedInstType_0::FloatAdd       278537      0.52%     65.34% # Number of instructions issued per FU type, per thread (Count)
system.cpu.statIssuedInstType_0::FloatCmp        16390      0.03%     65.37% # Number of instructions issued per FU type, per thread (Count)
system.cpu.statIssuedInstType_0::FloatCvt            0      0.00%     65.37% # Number of instructions issued per FU type, per thread (Count)
system.cpu.statIssuedInstType_0::FloatMult       262147      0.49%     65.86% # Number of instructions issued per FU type, per thread (Count)
system.cpu.statIssuedInstType_0::FloatMultAcc            0      0.00%     65.86% # Number of instructions issued per FU type, per thread (Count)
system.cpu.statIssuedInstType_0::FloatDiv            0      0.00%     65.86% # Number of instructions issued per FU type, per thread (Count)
system.cpu.statIssuedInstType_0::FloatMisc        61367      0.11%     65.97% # Number of instructions issued per FU type, per thread (Count)
system.cpu.statIssuedInstType_0::FloatSqrt            0      0.00%     65.97% # Number of instructions issued per FU type, per thread (Count)
system.cpu.statIssuedInstType_0::SimdAdd        63274      0.12%     66.09% # Number of instructions issued per FU type, per thread (Count)
system.cpu.statIssuedInstType_0::SimdAddAcc            0      0.00%     66.09% # Number of instructions issued per FU type, per thread (Count)
system.cpu.statIssuedInstType_0::SimdAlu       118955      0.22%     66.31% # Number of instructions issued per FU type, per thread (Count)
system.cpu.statIssuedInstType_0::SimdCmp       111376      0.21%     66.52% # Number of instructions issued per FU type, per thread (Count)
system.cpu.statIssuedInstType_0::SimdCvt            0      0.00%     66.52% # Number of instructions issued per FU type, per thread (Count)
system.cpu.statIssuedInstType_0::SimdMisc        76574      0.14%     66.66% # Number of instructions issued per FU type, per thread (Count)
system.cpu.statIssuedInstType_0::SimdMult            0      0.00%     66.66% # Number of instructions issued per FU type, per thread (Count)
system.cpu.statIssuedInstType_0::SimdMultAcc            0      0.00%     66.66% # Number of instructions issued per FU type, per thread (Count)
system.cpu.statIssuedInstType_0::SimdShift            0      0.00%     66.66% # Number of instructions issued per FU type, per thread (Count)
system.cpu.statIssuedInstType_0::SimdShiftAcc            0      0.00%     66.66% # Number of instructions issued per FU type, per thread (Count)
system.cpu.statIssuedInstType_0::SimdDiv            0      0.00%     66.66% # Number of instructions issued per FU type, per thread (Count)
system.cpu.statIssuedInstType_0::SimdSqrt            0      0.00%     66.66% # Number of instructions issued per FU type, per thread (Count)
system.cpu.statIssuedInstType_0::SimdFloatAdd            0      0.00%     66.66% # Number of instructions issued per FU type, per thread (Count)
system.cpu.statIssuedInstType_0::SimdFloatAlu            0      0.00%     66.66% # Number of instructions issued per FU type, per thread (Count)
system.cpu.statIssuedInstType_0::SimdFloatCmp            0      0.00%     66.66% # Number of instructions issued per FU type, per thread (Count)
system.cpu.statIssuedInstType_0::SimdFloatCvt            0      0.00%     66.66% # Number of instructions issued per FU type, per thread (Count)
system.cpu.statIssuedInstType_0::SimdFloatDiv            0      0.00%     66.66% # Number of instructions issued per FU type, per thread (Count)
system.cpu.statIssuedInstType_0::SimdFloatMisc            0      0.00%     66.66% # Number of instructions issued per FU type, per thread (Count)
system.cpu.statIssuedInstType_0::SimdFloatMult            0      0.00%     66.66% # Number of instructions issued per FU type, per thread (Count)
system.cpu.statIssuedInstType_0::SimdFloatMultAcc            0      0.00%     66.66% # Number of instructions issued per FU type, per thread (Count)
system.cpu.statIssuedInstType_0::SimdFloatSqrt            0      0.00%     66.66% # Number of instructions issued per FU type, per thread (Count)
system.cpu.statIssuedInstType_0::SimdReduceAdd            0      0.00%     66.66% # Number of instructions issued per FU type, per thread (Count)
system.cpu.statIssuedInstType_0::SimdReduceAlu            0      0.00%     66.66% # Number of instructions issued per FU type, per thread (Count)
system.cpu.statIssuedInstType_0::SimdReduceCmp            0      0.00%     66.66% # Number of instructions issued per FU type, per thread (Count)
system.cpu.statIssuedInstType_0::SimdFloatReduceAdd            0      0.00%     66.66% # Number of instructions issued per FU type, per thread (Count)
system.cpu.statIssuedInstType_0::SimdFloatReduceCmp            0      0.00%     66.66% # Number of instructions issued per FU type, per thread (Count)
system.cpu.statIssuedInstType_0::SimdAes            0      0.00%     66.66% # Number of instructions issued per FU type, per thread (Count)
system.cpu.statIssuedInstType_0::SimdAesMix            0      0.00%     66.66% # Number of instructions issued per FU type, per thread (Count)
system.cpu.statIssuedInstType_0::SimdSha1Hash            0      0.00%     66.66% # Number of instructions issued per FU type, per thread (Count)
system.cpu.statIssuedInstType_0::SimdSha1Hash2            0      0.00%     66.66% # Number of instructions issued per FU type, per thread (Count)
system.cpu.statIssuedInstType_0::SimdSha256Hash            0      0.00%     66.66% # Number of instructions issued per FU type, per thread (Count)
system.cpu.statIssuedInstType_0::SimdSha256Hash2            0      0.00%     66.66% # Number of instructions issued per FU type, per thread (Count)
system.cpu.statIssuedInstType_0::SimdShaSigma2            0      0.00%     66.66% # Number of instructions issued per FU type, per thread (Count)
system.cpu.statIssuedInstType_0::SimdShaSigma3            0      0.00%     66.66% # Number of instructions issued per FU type, per thread (Count)
system.cpu.statIssuedInstType_0::SimdPredAlu            0      0.00%     66.66% # Number of instructions issued per FU type, per thread (Count)
system.cpu.statIssuedInstType_0::MemRead     12353028     23.00%     89.66% # Number of instructions issued per FU type, per thread (Count)
system.cpu.statIssuedInstType_0::MemWrite      5555662     10.34%    100.00% # Number of instructions issued per FU type, per thread (Count)
system.cpu.statIssuedInstType_0::FloatMemRead            0      0.00%    100.00% # Number of instructions issued per FU type, per thread (Count)
system.cpu.statIssuedInstType_0::FloatMemWrite            0      0.00%    100.00% # Number of instructions issued per FU type, per thread (Count)
system.cpu.statIssuedInstType_0::IprAccess            0      0.00%    100.00% # Number of instructions issued per FU type, per thread (Count)
system.cpu.statIssuedInstType_0::InstPrefetch            0      0.00%    100.00% # Number of instructions issued per FU type, per thread (Count)
system.cpu.statIssuedInstType_0::total       53716861                       # Number of instructions issued per FU type, per thread (Count)
system.cpu.issueRate                         1.498025                       # Inst issue rate ((Count/Cycle))
system.cpu.fuBusy                             1040296                       # FU busy when requested (Count)
system.cpu.fuBusyRate                        0.019366                       # FU busy rate (busy events/executed inst) ((Count/Count))
system.cpu.intInstQueueReads                138201213                       # Number of integer instruction queue reads (Count)
system.cpu.intInstQueueWrites                54529513                       # Number of integer instruction queue writes (Count)
system.cpu.intInstQueueWakeupAccesses        49628086                       # Number of integer instruction queue wakeup accesses (Count)
system.cpu.fpInstQueueReads                         0                       # Number of floating instruction queue reads (Count)
system.cpu.fpInstQueueWrites                        0                       # Number of floating instruction queue writes (Count)
system.cpu.fpInstQueueWakeupAccesses                0                       # Number of floating instruction queue wakeup accesses (Count)
system.cpu.vecInstQueueReads                  5757660                       # Number of vector instruction queue reads (Count)
system.cpu.vecInstQueueWrites                 2920295                       # Number of vector instruction queue writes (Count)
system.cpu.vecInstQueueWakeupAccesses         2861001                       # Number of vector instruction queue wakeup accesses (Count)
system.cpu.intAluAccesses                    51868061                       # Number of integer alu accesses (Count)
system.cpu.fpAluAccesses                            0                       # Number of floating point alu accesses (Count)
system.cpu.vecAluAccesses                     2861228                       # Number of vector alu accesses (Count)
system.cpu.numInsts                          53580154                       # Number of executed instructions (Count)
system.cpu.numLoadInsts                      12290028                       # Number of load instructions executed (Count)
system.cpu.numSquashedInsts                    136707                       # Number of squashed instructions skipped in execute (Count)
system.cpu.numSwp                                   0                       # Number of swp insts executed (Count)
system.cpu.numNop                               65797                       # Number of nop insts executed (Count)
system.cpu.numRefs                           17832887                       # Number of memory reference insts executed (Count)
system.cpu.numBranches                        6989777                       # Number of branches executed (Count)
system.cpu.numStoreInsts                      5542859                       # Number of stores executed (Count)
system.cpu.numRate                           1.494213                       # Inst execution rate ((Count/Cycle))
system.cpu.timesIdled                           21004                       # Number of times that the entire CPU went into an idle state and unscheduled itself (Count)
system.cpu.idleCycles                          426576                       # Total number of cycles that the CPU has spent unscheduled due to idling (Cycle)
system.cpu.committedInsts                    46326279                       # Number of Instructions Simulated (Count)
system.cpu.committedOps                      50666649                       # Number of Ops (including micro ops) Simulated (Count)
system.cpu.cpi                               0.774041                       # CPI: Cycles Per Instruction ((Cycle/Count))
system.cpu.totalCpi                          0.774041                       # CPI: Total CPI of All Threads ((Cycle/Count))
system.cpu.ipc                               1.291921                       # IPC: Instructions Per Cycle ((Count/Cycle))
system.cpu.totalIpc                          1.291921                       # IPC: Total IPC of All Threads ((Count/Cycle))
system.cpu.intRegfileReads                   64145355                       # Number of integer regfile reads (Count)
system.cpu.intRegfileWrites                  39417105                       # Number of integer regfile writes (Count)
system.cpu.vecRegfileReads                    2432379                       # number of vector regfile reads (Count)
system.cpu.vecRegfileWrites                   2173661                       # number of vector regfile writes (Count)
system.cpu.ccRegfileReads                    14752671                       # number of cc regfile reads (Count)
system.cpu.ccRegfileWrites                   14725258                       # number of cc regfile writes (Count)
system.cpu.miscRegfileReads                 101337672                       # number of misc regfile reads (Count)
system.cpu.miscRegfileWrites                   561209                       # number of misc regfile writes (Count)
system.cpu.MemDepUnit__0.insertedLoads       11531780                       # Number of loads inserted to the mem dependence unit. (Count)
system.cpu.MemDepUnit__0.insertedStores       5635562                       # Number of stores inserted to the mem dependence unit. (Count)
system.cpu.MemDepUnit__0.conflictingLoads      2731913                       # Number of conflicting loads. (Count)
system.cpu.MemDepUnit__0.conflictingStores       845259                       # Number of conflicting stores. (Count)
system.cpu.MemDepUnit__1.insertedLoads              0                       # Number of loads inserted to the mem dependence unit. (Count)
system.cpu.MemDepUnit__1.insertedStores             0                       # Number of stores inserted to the mem dependence unit. (Count)
system.cpu.MemDepUnit__1.conflictingLoads            0                       # Number of conflicting loads. (Count)
system.cpu.MemDepUnit__1.conflictingStores            0                       # Number of conflicting stores. (Count)
system.cpu.MemDepUnit__2.insertedLoads              0                       # Number of loads inserted to the mem dependence unit. (Count)
system.cpu.MemDepUnit__2.insertedStores             0                       # Number of stores inserted to the mem dependence unit. (Count)
system.cpu.MemDepUnit__2.conflictingLoads            0                       # Number of conflicting loads. (Count)
system.cpu.MemDepUnit__2.conflictingStores            0                       # Number of conflicting stores. (Count)
system.cpu.MemDepUnit__3.insertedLoads              0                       # Number of loads inserted to the mem dependence unit. (Count)
system.cpu.MemDepUnit__3.insertedStores             0                       # Number of stores inserted to the mem dependence unit. (Count)
system.cpu.MemDepUnit__3.conflictingLoads            0                       # Number of conflicting loads. (Count)
system.cpu.MemDepUnit__3.conflictingStores            0                       # Number of conflicting stores. (Count)
system.cpu.branchPred.lookups                 7670489                       # Number of BP lookups (Count)
system.cpu.branchPred.condPredicted           5817042                       # Number of conditional branches predicted (Count)
system.cpu.branchPred.condIncorrect            110101                       # Number of conditional branches incorrect (Count)
system.cpu.branchPred.BTBLookups              4326038                       # Number of BTB lookups (Count)
system.cpu.branchPred.BTBHits                 4302584                       # Number of BTB hits (Count)
system.cpu.branchPred.BTBHitRatio            0.994578                       # BTB Hit Ratio (Ratio)
system.cpu.branchPred.RASUsed                  579071                       # Number of times the RAS was used to get a target. (Count)
system.cpu.branchPred.RASIncorrect                  5                       # Number of incorrect RAS predictions. (Count)
system.cpu.branchPred.indirectLookups           76914                       # Number of indirect predictor lookups. (Count)
system.cpu.branchPred.indirectHits              75605                       # Number of indirect target hits. (Count)
system.cpu.branchPred.indirectMisses             1309                       # Number of indirect misses. (Count)
system.cpu.branchPred.indirectMispredicted          104                       # Number of mispredicted indirect branches. (Count)
system.cpu.commit.commitSquashedInsts         3396594                       # The number of squashed insts skipped by commit (Count)
system.cpu.commit.commitNonSpecStalls            4171                       # The number of times commit has been forced to stall to communicate backwards (Count)
system.cpu.commit.branchMispredicts             97120                       # The number of times a branch was mispredicted (Count)
system.cpu.commit.numCommittedDist::samples     34952364                       # Number of insts commited each cycle (Count)
system.cpu.commit.numCommittedDist::mean     1.451307                       # Number of insts commited each cycle (Count)
system.cpu.commit.numCommittedDist::stdev     2.707250                       # Number of insts commited each cycle (Count)
system.cpu.commit.numCommittedDist::underflows            0      0.00%      0.00% # Number of insts commited each cycle (Count)
system.cpu.commit.numCommittedDist::0        23390691     66.92%     66.92% # Number of insts commited each cycle (Count)
system.cpu.commit.numCommittedDist::1         3223273      9.22%     76.14% # Number of insts commited each cycle (Count)
system.cpu.commit.numCommittedDist::2         1886952      5.40%     81.54% # Number of insts commited each cycle (Count)
system.cpu.commit.numCommittedDist::3          832057      2.38%     83.92% # Number of insts commited each cycle (Count)
system.cpu.commit.numCommittedDist::4          339000      0.97%     84.89% # Number of insts commited each cycle (Count)
system.cpu.commit.numCommittedDist::5          546458      1.56%     86.46% # Number of insts commited each cycle (Count)
system.cpu.commit.numCommittedDist::6          186748      0.53%     86.99% # Number of insts commited each cycle (Count)
system.cpu.commit.numCommittedDist::7          352995      1.01%     88.00% # Number of insts commited each cycle (Count)
system.cpu.commit.numCommittedDist::8         4194190     12.00%    100.00% # Number of insts commited each cycle (Count)
system.cpu.commit.numCommittedDist::overflows            0      0.00%    100.00% # Number of insts commited each cycle (Count)
system.cpu.commit.numCommittedDist::min_value            0                       # Number of insts commited each cycle (Count)
system.cpu.commit.numCommittedDist::max_value            8                       # Number of insts commited each cycle (Count)
system.cpu.commit.numCommittedDist::total     34952364                       # Number of insts commited each cycle (Count)
system.cpu.commit.instsCommitted             46386241                       # Number of instructions committed (Count)
system.cpu.commit.opsCommitted               50726611                       # Number of ops (including micro ops) committed (Count)
system.cpu.commit.memRefs                    16302297                       # Number of memory references committed (Count)
system.cpu.commit.loads                      11006940                       # Number of loads committed (Count)
system.cpu.commit.amos                             20                       # Number of atomic instructions committed (Count)
system.cpu.commit.membars                          24                       # Number of memory barriers committed (Count)
system.cpu.commit.branches                    6723046                       # Number of branches committed (Count)
system.cpu.commit.vectorInstructions          2842563                       # Number of committed Vector instructions. (Count)
system.cpu.commit.floating                          0                       # Number of committed floating point instructions. (Count)
system.cpu.commit.integer                    45425700                       # Number of committed integer instructions. (Count)
system.cpu.commit.functionCalls                508101                       # Number of function calls committed. (Count)
system.cpu.commit.committedInstType_0::No_OpClass        27678      0.05%      0.05% # Class of committed instruction (Count)
system.cpu.commit.committedInstType_0::IntAlu     32627942     64.32%     64.38% # Class of committed instruction (Count)
system.cpu.commit.committedInstType_0::IntMult       641224      1.26%     65.64% # Class of committed instruction (Count)
system.cpu.commit.committedInstType_0::IntDiv       153813      0.30%     65.94% # Class of committed instruction (Count)
system.cpu.commit.committedInstType_0::FloatAdd       278528      0.55%     66.49% # Class of committed instruction (Count)
system.cpu.commit.committedInstType_0::FloatCmp        16384      0.03%     66.52% # Class of committed instruction (Count)
system.cpu.commit.committedInstType_0::FloatCvt            0      0.00%     66.52% # Class of committed instruction (Count)
system.cpu.commit.committedInstType_0::FloatMult       262144      0.52%     67.04% # Class of committed instruction (Count)
system.cpu.commit.committedInstType_0::FloatMultAcc            0      0.00%     67.04% # Class of committed instruction (Count)
system.cpu.commit.committedInstType_0::FloatDiv            0      0.00%     67.04% # Class of committed instruction (Count)
system.cpu.commit.committedInstType_0::FloatMisc        49152      0.10%     67.14% # Class of committed instruction (Count)
system.cpu.commit.committedInstType_0::FloatSqrt            0      0.00%     67.14% # Class of committed instruction (Count)
system.cpu.commit.committedInstType_0::SimdAdd        62740      0.12%     67.26% # Class of committed instruction (Count)
system.cpu.commit.committedInstType_0::SimdAddAcc            0      0.00%     67.26% # Class of committed instruction (Count)
system.cpu.commit.committedInstType_0::SimdAlu       118039      0.23%     67.49% # Class of committed instruction (Count)
system.cpu.commit.committedInstType_0::SimdCmp       110616      0.22%     67.71% # Class of committed instruction (Count)
system.cpu.commit.committedInstType_0::SimdCvt            0      0.00%     67.71% # Class of committed instruction (Count)
system.cpu.commit.committedInstType_0::SimdMisc        76054      0.15%     67.86% # Class of committed instruction (Count)
system.cpu.commit.committedInstType_0::SimdMult            0      0.00%     67.86% # Class of committed instruction (Count)
system.cpu.commit.committedInstType_0::SimdMultAcc            0      0.00%     67.86% # Class of committed instruction (Count)
system.cpu.commit.committedInstType_0::SimdShift            0      0.00%     67.86% # Class of committed instruction (Count)
system.cpu.commit.committedInstType_0::SimdShiftAcc            0      0.00%     67.86% # Class of committed instruction (Count)
system.cpu.commit.committedInstType_0::SimdDiv            0      0.00%     67.86% # Class of committed instruction (Count)
system.cpu.commit.committedInstType_0::SimdSqrt            0      0.00%     67.86% # Class of committed instruction (Count)
system.cpu.commit.committedInstType_0::SimdFloatAdd            0      0.00%     67.86% # Class of committed instruction (Count)
system.cpu.commit.committedInstType_0::SimdFloatAlu            0      0.00%     67.86% # Class of committed instruction (Count)
system.cpu.commit.committedInstType_0::SimdFloatCmp            0      0.00%     67.86% # Class of committed instruction (Count)
system.cpu.commit.committedInstType_0::SimdFloatCvt            0      0.00%     67.86% # Class of committed instruction (Count)
system.cpu.commit.committedInstType_0::SimdFloatDiv            0      0.00%     67.86% # Class of committed instruction (Count)
system.cpu.commit.committedInstType_0::SimdFloatMisc            0      0.00%     67.86% # Class of committed instruction (Count)
system.cpu.commit.committedInstType_0::SimdFloatMult            0      0.00%     67.86% # Class of committed instruction (Count)
system.cpu.commit.committedInstType_0::SimdFloatMultAcc            0      0.00%     67.86% # Class of committed instruction (Count)
system.cpu.commit.committedInstType_0::SimdFloatSqrt            0      0.00%     67.86% # Class of committed instruction (Count)
system.cpu.commit.committedInstType_0::SimdReduceAdd            0      0.00%     67.86% # Class of committed instruction (Count)
system.cpu.commit.committedInstType_0::SimdReduceAlu            0      0.00%     67.86% # Class of committed instruction (Count)
system.cpu.commit.committedInstType_0::SimdReduceCmp            0      0.00%     67.86% # Class of committed instruction (Count)
system.cpu.commit.committedInstType_0::SimdFloatReduceAdd            0      0.00%     67.86% # Class of committed instruction (Count)
system.cpu.commit.committedInstType_0::SimdFloatReduceCmp            0      0.00%     67.86% # Class of committed instruction (Count)
system.cpu.commit.committedInstType_0::SimdAes            0      0.00%     67.86% # Class of committed instruction (Count)
system.cpu.commit.committedInstType_0::SimdAesMix            0      0.00%     67.86% # Class of committed instruction (Count)
system.cpu.commit.committedInstType_0::SimdSha1Hash            0      0.00%     67.86% # Class of committed instruction (Count)
system.cpu.commit.committedInstType_0::SimdSha1Hash2            0      0.00%     67.86% # Class of committed instruction (Count)
system.cpu.commit.committedInstType_0::SimdSha256Hash            0      0.00%     67.86% # Class of committed instruction (Count)
system.cpu.commit.committedInstType_0::SimdSha256Hash2            0      0.00%     67.86% # Class of committed instruction (Count)
system.cpu.commit.committedInstType_0::SimdShaSigma2            0      0.00%     67.86% # Class of committed instruction (Count)
system.cpu.commit.committedInstType_0::SimdShaSigma3            0      0.00%     67.86% # Class of committed instruction (Count)
system.cpu.commit.committedInstType_0::SimdPredAlu            0      0.00%     67.86% # Class of committed instruction (Count)
system.cpu.commit.committedInstType_0::MemRead     11006940     21.70%     89.56% # Class of committed instruction (Count)
system.cpu.commit.committedInstType_0::MemWrite      5295357     10.44%    100.00% # Class of committed instruction (Count)
system.cpu.commit.committedInstType_0::FloatMemRead            0      0.00%    100.00% # Class of committed instruction (Count)
system.cpu.commit.committedInstType_0::FloatMemWrite            0      0.00%    100.00% # Class of committed instruction (Count)
system.cpu.commit.committedInstType_0::IprAccess            0      0.00%    100.00% # Class of committed instruction (Count)
system.cpu.commit.committedInstType_0::InstPrefetch            0      0.00%    100.00% # Class of committed instruction (Count)
system.cpu.commit.committedInstType_0::total     50726611                       # Class of committed instruction (Count)
system.cpu.commit.commitEligibleSamples       4194190                       # number cycles where commit BW limit reached (Cycle)
system.cpu.dcache.demandHits::cpu.data       13201231                       # number of demand (read+write) hits (Count)
system.cpu.dcache.demandHits::total          13201231                       # number of demand (read+write) hits (Count)
system.cpu.dcache.overallHits::cpu.data      13220588                       # number of overall hits (Count)
system.cpu.dcache.overallHits::total         13220588                       # number of overall hits (Count)
system.cpu.dcache.demandMisses::cpu.data       629596                       # number of demand (read+write) misses (Count)
system.cpu.dcache.demandMisses::total          629596                       # number of demand (read+write) misses (Count)
system.cpu.dcache.overallMisses::cpu.data       640269                       # number of overall misses (Count)
system.cpu.dcache.overallMisses::total         640269                       # number of overall misses (Count)
system.cpu.dcache.demandMissLatency::cpu.data  25422540337                       # number of demand (read+write) miss ticks (Tick)
system.cpu.dcache.demandMissLatency::total  25422540337                       # number of demand (read+write) miss ticks (Tick)
system.cpu.dcache.overallMissLatency::cpu.data  25422540337                       # number of overall miss ticks (Tick)
system.cpu.dcache.overallMissLatency::total  25422540337                       # number of overall miss ticks (Tick)
system.cpu.dcache.demandAccesses::cpu.data     13830827                       # number of demand (read+write) accesses (Count)
system.cpu.dcache.demandAccesses::total      13830827                       # number of demand (read+write) accesses (Count)
system.cpu.dcache.overallAccesses::cpu.data     13860857                       # number of overall (read+write) accesses (Count)
system.cpu.dcache.overallAccesses::total     13860857                       # number of overall (read+write) accesses (Count)
system.cpu.dcache.demandMissRate::cpu.data     0.045521                       # miss rate for demand accesses (Ratio)
system.cpu.dcache.demandMissRate::total      0.045521                       # miss rate for demand accesses (Ratio)
system.cpu.dcache.overallMissRate::cpu.data     0.046193                       # miss rate for overall accesses (Ratio)
system.cpu.dcache.overallMissRate::total     0.046193                       # miss rate for overall accesses (Ratio)
system.cpu.dcache.demandAvgMissLatency::cpu.data 40379.132550                       # average overall miss latency ((Cycle/Count))
system.cpu.dcache.demandAvgMissLatency::total 40379.132550                       # average overall miss latency ((Cycle/Count))
system.cpu.dcache.overallAvgMissLatency::cpu.data 39706.030336                       # average overall miss latency ((Cycle/Count))
system.cpu.dcache.overallAvgMissLatency::total 39706.030336                       # average overall miss latency ((Cycle/Count))
system.cpu.dcache.blockedCycles::no_mshrs      1399342                       # number of cycles access was blocked (Cycle)
system.cpu.dcache.blockedCycles::no_targets            0                       # number of cycles access was blocked (Cycle)
system.cpu.dcache.blockedCauses::no_mshrs        51641                       # number of times access was blocked (Count)
system.cpu.dcache.blockedCauses::no_targets            0                       # number of times access was blocked (Count)
system.cpu.dcache.avgBlocked::no_mshrs      27.097500                       # average number of cycles each access was blocked ((Cycle/Count))
system.cpu.dcache.avgBlocked::no_targets          nan                       # average number of cycles each access was blocked ((Cycle/Count))
system.cpu.dcache.writebacks::writebacks       113048                       # number of writebacks (Count)
system.cpu.dcache.writebacks::total            113048                       # number of writebacks (Count)
system.cpu.dcache.demandMshrHits::cpu.data       334726                       # number of demand (read+write) MSHR hits (Count)
system.cpu.dcache.demandMshrHits::total        334726                       # number of demand (read+write) MSHR hits (Count)
system.cpu.dcache.overallMshrHits::cpu.data       334726                       # number of overall MSHR hits (Count)
system.cpu.dcache.overallMshrHits::total       334726                       # number of overall MSHR hits (Count)
system.cpu.dcache.demandMshrMisses::cpu.data       294870                       # number of demand (read+write) MSHR misses (Count)
system.cpu.dcache.demandMshrMisses::total       294870                       # number of demand (read+write) MSHR misses (Count)
system.cpu.dcache.overallMshrMisses::cpu.data       301051                       # number of overall MSHR misses (Count)
system.cpu.dcache.overallMshrMisses::total       301051                       # number of overall MSHR misses (Count)
system.cpu.dcache.demandMshrMissLatency::cpu.data  13589605501                       # number of demand (read+write) MSHR miss ticks (Tick)
system.cpu.dcache.demandMshrMissLatency::total  13589605501                       # number of demand (read+write) MSHR miss ticks (Tick)
system.cpu.dcache.overallMshrMissLatency::cpu.data  13952698501                       # number of overall MSHR miss ticks (Tick)
system.cpu.dcache.overallMshrMissLatency::total  13952698501                       # number of overall MSHR miss ticks (Tick)
system.cpu.dcache.demandMshrMissRate::cpu.data     0.021320                       # mshr miss ratio for demand accesses (Ratio)
system.cpu.dcache.demandMshrMissRate::total     0.021320                       # mshr miss ratio for demand accesses (Ratio)
system.cpu.dcache.overallMshrMissRate::cpu.data     0.021720                       # mshr miss ratio for overall accesses (Ratio)
system.cpu.dcache.overallMshrMissRate::total     0.021720                       # mshr miss ratio for overall accesses (Ratio)
system.cpu.dcache.demandAvgMshrMissLatency::cpu.data 46086.768749                       # average overall mshr miss latency ((Cycle/Count))
system.cpu.dcache.demandAvgMshrMissLatency::total 46086.768749                       # average overall mshr miss latency ((Cycle/Count))
system.cpu.dcache.overallAvgMshrMissLatency::cpu.data 46346.627319                       # average overall mshr miss latency ((Cycle/Count))
system.cpu.dcache.overallAvgMshrMissLatency::total 46346.627319                       # average overall mshr miss latency ((Cycle/Count))
system.cpu.dcache.replacements                 300989                       # number of replacements (Count)
system.cpu.dcache.LoadLockedReq.hits::cpu.data            4                       # number of LoadLockedReq hits (Count)
system.cpu.dcache.LoadLockedReq.hits::total            4                       # number of LoadLockedReq hits (Count)
system.cpu.dcache.LoadLockedReq.misses::cpu.data            1                       # number of LoadLockedReq misses (Count)
system.cpu.dcache.LoadLockedReq.misses::total            1                       # number of LoadLockedReq misses (Count)
system.cpu.dcache.LoadLockedReq.missLatency::cpu.data        73500                       # number of LoadLockedReq miss ticks (Tick)
system.cpu.dcache.LoadLockedReq.missLatency::total        73500                       # number of LoadLockedReq miss ticks (Tick)
system.cpu.dcache.LoadLockedReq.accesses::cpu.data            5                       # number of LoadLockedReq accesses(hits+misses) (Count)
system.cpu.dcache.LoadLockedReq.accesses::total            5                       # number of LoadLockedReq accesses(hits+misses) (Count)
system.cpu.dcache.LoadLockedReq.missRate::cpu.data     0.200000                       # miss rate for LoadLockedReq accesses (Ratio)
system.cpu.dcache.LoadLockedReq.missRate::total     0.200000                       # miss rate for LoadLockedReq accesses (Ratio)
system.cpu.dcache.LoadLockedReq.avgMissLatency::cpu.data        73500                       # average LoadLockedReq miss latency ((Tick/Count))
system.cpu.dcache.LoadLockedReq.avgMissLatency::total        73500                       # average LoadLockedReq miss latency ((Tick/Count))
system.cpu.dcache.LoadLockedReq.mshrMisses::cpu.data            1                       # number of LoadLockedReq MSHR misses (Count)
system.cpu.dcache.LoadLockedReq.mshrMisses::total            1                       # number of LoadLockedReq MSHR misses (Count)
system.cpu.dcache.LoadLockedReq.mshrMissLatency::cpu.data        72500                       # number of LoadLockedReq MSHR miss ticks (Tick)
system.cpu.dcache.LoadLockedReq.mshrMissLatency::total        72500                       # number of LoadLockedReq MSHR miss ticks (Tick)
system.cpu.dcache.LoadLockedReq.mshrMissRate::cpu.data     0.200000                       # mshr miss rate for LoadLockedReq accesses (Ratio)
system.cpu.dcache.LoadLockedReq.mshrMissRate::total     0.200000                       # mshr miss rate for LoadLockedReq accesses (Ratio)
system.cpu.dcache.LoadLockedReq.avgMshrMissLatency::cpu.data        72500                       # average LoadLockedReq mshr miss latency ((Tick/Count))
system.cpu.dcache.LoadLockedReq.avgMshrMissLatency::total        72500                       # average LoadLockedReq mshr miss latency ((Tick/Count))
system.cpu.dcache.ReadReq.hits::cpu.data      8132128                       # number of ReadReq hits (Count)
system.cpu.dcache.ReadReq.hits::total         8132128                       # number of ReadReq hits (Count)
system.cpu.dcache.ReadReq.misses::cpu.data       403364                       # number of ReadReq misses (Count)
system.cpu.dcache.ReadReq.misses::total        403364                       # number of ReadReq misses (Count)
system.cpu.dcache.ReadReq.missLatency::cpu.data  19946562500                       # number of ReadReq miss ticks (Tick)
system.cpu.dcache.ReadReq.missLatency::total  19946562500                       # number of ReadReq miss ticks (Tick)
system.cpu.dcache.ReadReq.accesses::cpu.data      8535492                       # number of ReadReq accesses(hits+misses) (Count)
system.cpu.dcache.ReadReq.accesses::total      8535492                       # number of ReadReq accesses(hits+misses) (Count)
system.cpu.dcache.ReadReq.missRate::cpu.data     0.047257                       # miss rate for ReadReq accesses (Ratio)
system.cpu.dcache.ReadReq.missRate::total     0.047257                       # miss rate for ReadReq accesses (Ratio)
system.cpu.dcache.ReadReq.avgMissLatency::cpu.data 49450.527315                       # average ReadReq miss latency ((Tick/Count))
system.cpu.dcache.ReadReq.avgMissLatency::total 49450.527315                       # average ReadReq miss latency ((Tick/Count))
system.cpu.dcache.ReadReq.mshrHits::cpu.data       180724                       # number of ReadReq MSHR hits (Count)
system.cpu.dcache.ReadReq.mshrHits::total       180724                       # number of ReadReq MSHR hits (Count)
system.cpu.dcache.ReadReq.mshrMisses::cpu.data       222640                       # number of ReadReq MSHR misses (Count)
system.cpu.dcache.ReadReq.mshrMisses::total       222640                       # number of ReadReq MSHR misses (Count)
system.cpu.dcache.ReadReq.mshrMissLatency::cpu.data  11874793000                       # number of ReadReq MSHR miss ticks (Tick)
system.cpu.dcache.ReadReq.mshrMissLatency::total  11874793000                       # number of ReadReq MSHR miss ticks (Tick)
system.cpu.dcache.ReadReq.mshrMissRate::cpu.data     0.026084                       # mshr miss rate for ReadReq accesses (Ratio)
system.cpu.dcache.ReadReq.mshrMissRate::total     0.026084                       # mshr miss rate for ReadReq accesses (Ratio)
system.cpu.dcache.ReadReq.avgMshrMissLatency::cpu.data 53336.296263                       # average ReadReq mshr miss latency ((Tick/Count))
system.cpu.dcache.ReadReq.avgMshrMissLatency::total 53336.296263                       # average ReadReq mshr miss latency ((Tick/Count))
system.cpu.dcache.SoftPFReq.hits::cpu.data        19357                       # number of SoftPFReq hits (Count)
system.cpu.dcache.SoftPFReq.hits::total         19357                       # number of SoftPFReq hits (Count)
system.cpu.dcache.SoftPFReq.misses::cpu.data        10673                       # number of SoftPFReq misses (Count)
system.cpu.dcache.SoftPFReq.misses::total        10673                       # number of SoftPFReq misses (Count)
system.cpu.dcache.SoftPFReq.accesses::cpu.data        30030                       # number of SoftPFReq accesses(hits+misses) (Count)
system.cpu.dcache.SoftPFReq.accesses::total        30030                       # number of SoftPFReq accesses(hits+misses) (Count)
system.cpu.dcache.SoftPFReq.missRate::cpu.data     0.355411                       # miss rate for SoftPFReq accesses (Ratio)
system.cpu.dcache.SoftPFReq.missRate::total     0.355411                       # miss rate for SoftPFReq accesses (Ratio)
system.cpu.dcache.SoftPFReq.mshrMisses::cpu.data         6181                       # number of SoftPFReq MSHR misses (Count)
system.cpu.dcache.SoftPFReq.mshrMisses::total         6181                       # number of SoftPFReq MSHR misses (Count)
system.cpu.dcache.SoftPFReq.mshrMissLatency::cpu.data    363093000                       # number of SoftPFReq MSHR miss ticks (Tick)
system.cpu.dcache.SoftPFReq.mshrMissLatency::total    363093000                       # number of SoftPFReq MSHR miss ticks (Tick)
system.cpu.dcache.SoftPFReq.mshrMissRate::cpu.data     0.205828                       # mshr miss rate for SoftPFReq accesses (Ratio)
system.cpu.dcache.SoftPFReq.mshrMissRate::total     0.205828                       # mshr miss rate for SoftPFReq accesses (Ratio)
system.cpu.dcache.SoftPFReq.avgMshrMissLatency::cpu.data 58743.407216                       # average SoftPFReq mshr miss latency ((Tick/Count))
system.cpu.dcache.SoftPFReq.avgMshrMissLatency::total 58743.407216                       # average SoftPFReq mshr miss latency ((Tick/Count))
system.cpu.dcache.StoreCondReq.hits::cpu.data            4                       # number of StoreCondReq hits (Count)
system.cpu.dcache.StoreCondReq.hits::total            4                       # number of StoreCondReq hits (Count)
system.cpu.dcache.StoreCondReq.accesses::cpu.data            4                       # number of StoreCondReq accesses(hits+misses) (Count)
system.cpu.dcache.StoreCondReq.accesses::total            4                       # number of StoreCondReq accesses(hits+misses) (Count)
system.cpu.dcache.SwapReq.hits::cpu.data           19                       # number of SwapReq hits (Count)
system.cpu.dcache.SwapReq.hits::total              19                       # number of SwapReq hits (Count)
system.cpu.dcache.SwapReq.misses::cpu.data            1                       # number of SwapReq misses (Count)
system.cpu.dcache.SwapReq.misses::total             1                       # number of SwapReq misses (Count)
system.cpu.dcache.SwapReq.missLatency::cpu.data        79000                       # number of SwapReq miss ticks (Tick)
system.cpu.dcache.SwapReq.missLatency::total        79000                       # number of SwapReq miss ticks (Tick)
system.cpu.dcache.SwapReq.accesses::cpu.data           20                       # number of SwapReq accesses(hits+misses) (Count)
system.cpu.dcache.SwapReq.accesses::total           20                       # number of SwapReq accesses(hits+misses) (Count)
system.cpu.dcache.SwapReq.missRate::cpu.data     0.050000                       # miss rate for SwapReq accesses (Ratio)
system.cpu.dcache.SwapReq.missRate::total     0.050000                       # miss rate for SwapReq accesses (Ratio)
system.cpu.dcache.SwapReq.avgMissLatency::cpu.data        79000                       # average SwapReq miss latency ((Tick/Count))
system.cpu.dcache.SwapReq.avgMissLatency::total        79000                       # average SwapReq miss latency ((Tick/Count))
system.cpu.dcache.SwapReq.mshrMisses::cpu.data            1                       # number of SwapReq MSHR misses (Count)
system.cpu.dcache.SwapReq.mshrMisses::total            1                       # number of SwapReq MSHR misses (Count)
system.cpu.dcache.SwapReq.mshrMissLatency::cpu.data        78000                       # number of SwapReq MSHR miss ticks (Tick)
system.cpu.dcache.SwapReq.mshrMissLatency::total        78000                       # number of SwapReq MSHR miss ticks (Tick)
system.cpu.dcache.SwapReq.mshrMissRate::cpu.data     0.050000                       # mshr miss rate for SwapReq accesses (Ratio)
system.cpu.dcache.SwapReq.mshrMissRate::total     0.050000                       # mshr miss rate for SwapReq accesses (Ratio)
system.cpu.dcache.SwapReq.avgMshrMissLatency::cpu.data        78000                       # average SwapReq mshr miss latency ((Tick/Count))
system.cpu.dcache.SwapReq.avgMshrMissLatency::total        78000                       # average SwapReq mshr miss latency ((Tick/Count))
system.cpu.dcache.WriteLineReq.misses::cpu.data         1540                       # number of WriteLineReq misses (Count)
system.cpu.dcache.WriteLineReq.misses::total         1540                       # number of WriteLineReq misses (Count)
system.cpu.dcache.WriteLineReq.missLatency::cpu.data     30420639                       # number of WriteLineReq miss ticks (Tick)
system.cpu.dcache.WriteLineReq.missLatency::total     30420639                       # number of WriteLineReq miss ticks (Tick)
system.cpu.dcache.WriteLineReq.accesses::cpu.data         1540                       # number of WriteLineReq accesses(hits+misses) (Count)
system.cpu.dcache.WriteLineReq.accesses::total         1540                       # number of WriteLineReq accesses(hits+misses) (Count)
system.cpu.dcache.WriteLineReq.missRate::cpu.data            1                       # miss rate for WriteLineReq accesses (Ratio)
system.cpu.dcache.WriteLineReq.missRate::total            1                       # miss rate for WriteLineReq accesses (Ratio)
system.cpu.dcache.WriteLineReq.avgMissLatency::cpu.data 19753.661688                       # average WriteLineReq miss latency ((Tick/Count))
system.cpu.dcache.WriteLineReq.avgMissLatency::total 19753.661688                       # average WriteLineReq miss latency ((Tick/Count))
system.cpu.dcache.WriteLineReq.mshrMisses::cpu.data         1540                       # number of WriteLineReq MSHR misses (Count)
system.cpu.dcache.WriteLineReq.mshrMisses::total         1540                       # number of WriteLineReq MSHR misses (Count)
system.cpu.dcache.WriteLineReq.mshrMissLatency::cpu.data     28880639                       # number of WriteLineReq MSHR miss ticks (Tick)
system.cpu.dcache.WriteLineReq.mshrMissLatency::total     28880639                       # number of WriteLineReq MSHR miss ticks (Tick)
system.cpu.dcache.WriteLineReq.mshrMissRate::cpu.data            1                       # mshr miss rate for WriteLineReq accesses (Ratio)
system.cpu.dcache.WriteLineReq.mshrMissRate::total            1                       # mshr miss rate for WriteLineReq accesses (Ratio)
system.cpu.dcache.WriteLineReq.avgMshrMissLatency::cpu.data 18753.661688                       # average WriteLineReq mshr miss latency ((Tick/Count))
system.cpu.dcache.WriteLineReq.avgMshrMissLatency::total 18753.661688                       # average WriteLineReq mshr miss latency ((Tick/Count))
system.cpu.dcache.WriteReq.hits::cpu.data      5069103                       # number of WriteReq hits (Count)
system.cpu.dcache.WriteReq.hits::total        5069103                       # number of WriteReq hits (Count)
system.cpu.dcache.WriteReq.misses::cpu.data       224692                       # number of WriteReq misses (Count)
system.cpu.dcache.WriteReq.misses::total       224692                       # number of WriteReq misses (Count)
system.cpu.dcache.WriteReq.missLatency::cpu.data   5445557198                       # number of WriteReq miss ticks (Tick)
system.cpu.dcache.WriteReq.missLatency::total   5445557198                       # number of WriteReq miss ticks (Tick)
system.cpu.dcache.WriteReq.accesses::cpu.data      5293795                       # number of WriteReq accesses(hits+misses) (Count)
system.cpu.dcache.WriteReq.accesses::total      5293795                       # number of WriteReq accesses(hits+misses) (Count)
system.cpu.dcache.WriteReq.missRate::cpu.data     0.042444                       # miss rate for WriteReq accesses (Ratio)
system.cpu.dcache.WriteReq.missRate::total     0.042444                       # miss rate for WriteReq accesses (Ratio)
system.cpu.dcache.WriteReq.avgMissLatency::cpu.data 24235.652351                       # average WriteReq miss latency ((Tick/Count))
system.cpu.dcache.WriteReq.avgMissLatency::total 24235.652351                       # average WriteReq miss latency ((Tick/Count))
system.cpu.dcache.WriteReq.mshrHits::cpu.data       154002                       # number of WriteReq MSHR hits (Count)
system.cpu.dcache.WriteReq.mshrHits::total       154002                       # number of WriteReq MSHR hits (Count)
system.cpu.dcache.WriteReq.mshrMisses::cpu.data        70690                       # number of WriteReq MSHR misses (Count)
system.cpu.dcache.WriteReq.mshrMisses::total        70690                       # number of WriteReq MSHR misses (Count)
system.cpu.dcache.WriteReq.mshrMissLatency::cpu.data   1685931862                       # number of WriteReq MSHR miss ticks (Tick)
system.cpu.dcache.WriteReq.mshrMissLatency::total   1685931862                       # number of WriteReq MSHR miss ticks (Tick)
system.cpu.dcache.WriteReq.mshrMissRate::cpu.data     0.013353                       # mshr miss rate for WriteReq accesses (Ratio)
system.cpu.dcache.WriteReq.mshrMissRate::total     0.013353                       # mshr miss rate for WriteReq accesses (Ratio)
system.cpu.dcache.WriteReq.avgMshrMissLatency::cpu.data 23849.651464                       # average WriteReq mshr miss latency ((Tick/Count))
system.cpu.dcache.WriteReq.avgMshrMissLatency::total 23849.651464                       # average WriteReq mshr miss latency ((Tick/Count))
system.cpu.dcache.power_state.pwrStateResidencyTicks::UNDEFINED  17929220500                       # Cumulative time (in ticks) in various power states (Tick)
system.cpu.dcache.tags.tagsInUse            63.988646                       # Average ticks per tags in use ((Tick/Count))
system.cpu.dcache.tags.totalRefs             13521668                       # Total number of references to valid blocks. (Count)
system.cpu.dcache.tags.sampledRefs             301053                       # Sample count of references to valid blocks. (Count)
system.cpu.dcache.tags.avgRefs              44.914577                       # Average number of references to valid blocks. ((Count/Count))
system.cpu.dcache.tags.warmupTick              145000                       # The tick when the warmup percentage was hit. (Tick)
system.cpu.dcache.tags.occupancies::cpu.data    63.988646                       # Average occupied blocks per tick, per requestor ((Count/Tick))
system.cpu.dcache.tags.avgOccs::cpu.data     0.999823                       # Average percentage of cache occupancy ((Ratio/Tick))
system.cpu.dcache.tags.avgOccs::total        0.999823                       # Average percentage of cache occupancy ((Ratio/Tick))
system.cpu.dcache.tags.occupanciesTaskId::1024           64                       # Occupied blocks per task id (Count)
system.cpu.dcache.tags.ageTaskId_1024::0           53                       # Occupied blocks per task id, per block age (Count)
system.cpu.dcache.tags.ageTaskId_1024::1           11                       # Occupied blocks per task id, per block age (Count)
system.cpu.dcache.tags.ratioOccsTaskId::1024            1                       # Ratio of occupied blocks and all blocks, per task id (Ratio)
system.cpu.dcache.tags.tagAccesses           28022825                       # Number of tag accesses (Count)
system.cpu.dcache.tags.dataAccesses          28022825                       # Number of data accesses (Count)
system.cpu.dcache.tags.power_state.pwrStateResidencyTicks::UNDEFINED  17929220500                       # Cumulative time (in ticks) in various power states (Tick)
system.cpu.decode.idleCycles                  5003954                       # Number of cycles decode is idle (Cycle)
system.cpu.decode.blockedCycles              21321352                       # Number of cycles decode is blocked (Cycle)
system.cpu.decode.runCycles                   6821342                       # Number of cycles decode is running (Cycle)
system.cpu.decode.unblockCycles               2182819                       # Number of cycles decode is unblocking (Cycle)
system.cpu.decode.squashCycles                 102400                       # Number of cycles decode is squashing (Cycle)
system.cpu.decode.branchResolved              4193175                       # Number of times decode resolved a branch (Count)
system.cpu.decode.branchMispred                 12993                       # Number of times decode detected a branch misprediction (Count)
system.cpu.decode.decodedInsts               55075875                       # Number of instructions handled by decode (Count)
system.cpu.decode.squashedInsts                 63954                       # Number of squashed instructions handled by decode (Count)
system.cpu.fetch.icacheStallCycles            7341362                       # Number of cycles fetch is stalled on an Icache miss (Cycle)
system.cpu.fetch.insts                       51798460                       # Number of instructions fetch has processed (Count)
system.cpu.fetch.branches                     7670489                       # Number of branches that fetch encountered (Count)
system.cpu.fetch.predictedBranches            4957260                       # Number of branches that fetch has predicted taken (Count)
system.cpu.fetch.cycles                      27975033                       # Number of cycles fetch has run and was not squashing or blocked (Cycle)
system.cpu.fetch.squashCycles                  230762                       # Number of cycles fetch has spent squashing (Cycle)
system.cpu.fetch.miscStallCycles                   59                       # Number of cycles fetch has spent waiting on interrupts, or bad addresses, or out of MSHRs (Cycle)
system.cpu.fetch.icacheWaitRetryStallCycles           32                       # Number of stall cycles due to full MSHR (Cycle)
system.cpu.fetch.cacheLines                   6511262                       # Number of cache lines fetched (Count)
system.cpu.fetch.icacheSquashes                 40261                       # Number of outstanding Icache misses that were squashed (Count)
system.cpu.fetch.nisnDist::samples           35431867                       # Number of instructions fetched each cycle (Total) (Count)
system.cpu.fetch.nisnDist::mean              1.605480                       # Number of instructions fetched each cycle (Total) (Count)
system.cpu.fetch.nisnDist::stdev             2.764867                       # Number of instructions fetched each cycle (Total) (Count)
system.cpu.fetch.nisnDist::underflows               0      0.00%      0.00% # Number of instructions fetched each cycle (Total) (Count)
system.cpu.fetch.nisnDist::0                 24154695     68.17%     68.17% # Number of instructions fetched each cycle (Total) (Count)
system.cpu.fetch.nisnDist::1                  1198542      3.38%     71.55% # Number of instructions fetched each cycle (Total) (Count)
system.cpu.fetch.nisnDist::2                  1487290      4.20%     75.75% # Number of instructions fetched each cycle (Total) (Count)
system.cpu.fetch.nisnDist::3                  1130171      3.19%     78.94% # Number of instructions fetched each cycle (Total) (Count)
system.cpu.fetch.nisnDist::4                  1293766      3.65%     82.59% # Number of instructions fetched each cycle (Total) (Count)
system.cpu.fetch.nisnDist::5                   935741      2.64%     85.23% # Number of instructions fetched each cycle (Total) (Count)
system.cpu.fetch.nisnDist::6                   865223      2.44%     87.68% # Number of instructions fetched each cycle (Total) (Count)
system.cpu.fetch.nisnDist::7                   655109      1.85%     89.53% # Number of instructions fetched each cycle (Total) (Count)
system.cpu.fetch.nisnDist::8                  3711330     10.47%    100.00% # Number of instructions fetched each cycle (Total) (Count)
system.cpu.fetch.nisnDist::overflows                0      0.00%    100.00% # Number of instructions fetched each cycle (Total) (Count)
system.cpu.fetch.nisnDist::min_value                0                       # Number of instructions fetched each cycle (Total) (Count)
system.cpu.fetch.nisnDist::max_value                8                       # Number of instructions fetched each cycle (Total) (Count)
system.cpu.fetch.nisnDist::total             35431867                       # Number of instructions fetched each cycle (Total) (Count)
system.cpu.fetch.branchRate                  0.213910                       # Number of branch fetches per cycle (Ratio)
system.cpu.fetch.rate                        1.444526                       # Number of inst fetches per cycle ((Count/Cycle))
system.cpu.icache.demandHits::cpu.inst        6485249                       # number of demand (read+write) hits (Count)
system.cpu.icache.demandHits::total           6485249                       # number of demand (read+write) hits (Count)
system.cpu.icache.overallHits::cpu.inst       6485249                       # number of overall hits (Count)
system.cpu.icache.overallHits::total          6485249                       # number of overall hits (Count)
system.cpu.icache.demandMisses::cpu.inst        26012                       # number of demand (read+write) misses (Count)
system.cpu.icache.demandMisses::total           26012                       # number of demand (read+write) misses (Count)
system.cpu.icache.overallMisses::cpu.inst        26012                       # number of overall misses (Count)
system.cpu.icache.overallMisses::total          26012                       # number of overall misses (Count)
system.cpu.icache.demandMissLatency::cpu.inst    669092499                       # number of demand (read+write) miss ticks (Tick)
system.cpu.icache.demandMissLatency::total    669092499                       # number of demand (read+write) miss ticks (Tick)
system.cpu.icache.overallMissLatency::cpu.inst    669092499                       # number of overall miss ticks (Tick)
system.cpu.icache.overallMissLatency::total    669092499                       # number of overall miss ticks (Tick)
system.cpu.icache.demandAccesses::cpu.inst      6511261                       # number of demand (read+write) accesses (Count)
system.cpu.icache.demandAccesses::total       6511261                       # number of demand (read+write) accesses (Count)
system.cpu.icache.overallAccesses::cpu.inst      6511261                       # number of overall (read+write) accesses (Count)
system.cpu.icache.overallAccesses::total      6511261                       # number of overall (read+write) accesses (Count)
system.cpu.icache.demandMissRate::cpu.inst     0.003995                       # miss rate for demand accesses (Ratio)
system.cpu.icache.demandMissRate::total      0.003995                       # miss rate for demand accesses (Ratio)
system.cpu.icache.overallMissRate::cpu.inst     0.003995                       # miss rate for overall accesses (Ratio)
system.cpu.icache.overallMissRate::total     0.003995                       # miss rate for overall accesses (Ratio)
system.cpu.icache.demandAvgMissLatency::cpu.inst 25722.454982                       # average overall miss latency ((Cycle/Count))
system.cpu.icache.demandAvgMissLatency::total 25722.454982                       # average overall miss latency ((Cycle/Count))
system.cpu.icache.overallAvgMissLatency::cpu.inst 25722.454982                       # average overall miss latency ((Cycle/Count))
system.cpu.icache.overallAvgMissLatency::total 25722.454982                       # average overall miss latency ((Cycle/Count))
system.cpu.icache.blockedCycles::no_mshrs          714                       # number of cycles access was blocked (Cycle)
system.cpu.icache.blockedCycles::no_targets            0                       # number of cycles access was blocked (Cycle)
system.cpu.icache.blockedCauses::no_mshrs           12                       # number of times access was blocked (Count)
system.cpu.icache.blockedCauses::no_targets            0                       # number of times access was blocked (Count)
system.cpu.icache.avgBlocked::no_mshrs      59.500000                       # average number of cycles each access was blocked ((Cycle/Count))
system.cpu.icache.avgBlocked::no_targets          nan                       # average number of cycles each access was blocked ((Cycle/Count))
system.cpu.icache.writebacks::writebacks        25125                       # number of writebacks (Count)
system.cpu.icache.writebacks::total             25125                       # number of writebacks (Count)
system.cpu.icache.demandMshrHits::cpu.inst          406                       # number of demand (read+write) MSHR hits (Count)
system.cpu.icache.demandMshrHits::total           406                       # number of demand (read+write) MSHR hits (Count)
system.cpu.icache.overallMshrHits::cpu.inst          406                       # number of overall MSHR hits (Count)
system.cpu.icache.overallMshrHits::total          406                       # number of overall MSHR hits (Count)
system.cpu.icache.demandMshrMisses::cpu.inst        25606                       # number of demand (read+write) MSHR misses (Count)
system.cpu.icache.demandMshrMisses::total        25606                       # number of demand (read+write) MSHR misses (Count)
system.cpu.icache.overallMshrMisses::cpu.inst        25606                       # number of overall MSHR misses (Count)
system.cpu.icache.overallMshrMisses::total        25606                       # number of overall MSHR misses (Count)
system.cpu.icache.demandMshrMissLatency::cpu.inst    627593499                       # number of demand (read+write) MSHR miss ticks (Tick)
system.cpu.icache.demandMshrMissLatency::total    627593499                       # number of demand (read+write) MSHR miss ticks (Tick)
system.cpu.icache.overallMshrMissLatency::cpu.inst    627593499                       # number of overall MSHR miss ticks (Tick)
system.cpu.icache.overallMshrMissLatency::total    627593499                       # number of overall MSHR miss ticks (Tick)
system.cpu.icache.demandMshrMissRate::cpu.inst     0.003933                       # mshr miss ratio for demand accesses (Ratio)
system.cpu.icache.demandMshrMissRate::total     0.003933                       # mshr miss ratio for demand accesses (Ratio)
system.cpu.icache.overallMshrMissRate::cpu.inst     0.003933                       # mshr miss ratio for overall accesses (Ratio)
system.cpu.icache.overallMshrMissRate::total     0.003933                       # mshr miss ratio for overall accesses (Ratio)
system.cpu.icache.demandAvgMshrMissLatency::cpu.inst 24509.626611                       # average overall mshr miss latency ((Cycle/Count))
system.cpu.icache.demandAvgMshrMissLatency::total 24509.626611                       # average overall mshr miss latency ((Cycle/Count))
system.cpu.icache.overallAvgMshrMissLatency::cpu.inst 24509.626611                       # average overall mshr miss latency ((Cycle/Count))
system.cpu.icache.overallAvgMshrMissLatency::total 24509.626611                       # average overall mshr miss latency ((Cycle/Count))
system.cpu.icache.replacements                  25125                       # number of replacements (Count)
system.cpu.icache.ReadReq.hits::cpu.inst      6485249                       # number of ReadReq hits (Count)
system.cpu.icache.ReadReq.hits::total         6485249                       # number of ReadReq hits (Count)
system.cpu.icache.ReadReq.misses::cpu.inst        26012                       # number of ReadReq misses (Count)
system.cpu.icache.ReadReq.misses::total         26012                       # number of ReadReq misses (Count)
system.cpu.icache.ReadReq.missLatency::cpu.inst    669092499                       # number of ReadReq miss ticks (Tick)
system.cpu.icache.ReadReq.missLatency::total    669092499                       # number of ReadReq miss ticks (Tick)
system.cpu.icache.ReadReq.accesses::cpu.inst      6511261                       # number of ReadReq accesses(hits+misses) (Count)
system.cpu.icache.ReadReq.accesses::total      6511261                       # number of ReadReq accesses(hits+misses) (Count)
system.cpu.icache.ReadReq.missRate::cpu.inst     0.003995                       # miss rate for ReadReq accesses (Ratio)
system.cpu.icache.ReadReq.missRate::total     0.003995                       # miss rate for ReadReq accesses (Ratio)
system.cpu.icache.ReadReq.avgMissLatency::cpu.inst 25722.454982                       # average ReadReq miss latency ((Tick/Count))
system.cpu.icache.ReadReq.avgMissLatency::total 25722.454982                       # average ReadReq miss latency ((Tick/Count))
system.cpu.icache.ReadReq.mshrHits::cpu.inst          406                       # number of ReadReq MSHR hits (Count)
system.cpu.icache.ReadReq.mshrHits::total          406                       # number of ReadReq MSHR hits (Count)
system.cpu.icache.ReadReq.mshrMisses::cpu.inst        25606                       # number of ReadReq MSHR misses (Count)
system.cpu.icache.ReadReq.mshrMisses::total        25606                       # number of ReadReq MSHR misses (Count)
system.cpu.icache.ReadReq.mshrMissLatency::cpu.inst    627593499                       # number of ReadReq MSHR miss ticks (Tick)
system.cpu.icache.ReadReq.mshrMissLatency::total    627593499                       # number of ReadReq MSHR miss ticks (Tick)
system.cpu.icache.ReadReq.mshrMissRate::cpu.inst     0.003933                       # mshr miss rate for ReadReq accesses (Ratio)
system.cpu.icache.ReadReq.mshrMissRate::total     0.003933                       # mshr miss rate for ReadReq accesses (Ratio)
system.cpu.icache.ReadReq.avgMshrMissLatency::cpu.inst 24509.626611                       # average ReadReq mshr miss latency ((Tick/Count))
system.cpu.icache.ReadReq.avgMshrMissLatency::total 24509.626611                       # average ReadReq mshr miss latency ((Tick/Count))
system.cpu.icache.power_state.pwrStateResidencyTicks::UNDEFINED  17929220500                       # Cumulative time (in ticks) in various power states (Tick)
system.cpu.icache.tags.tagsInUse           413.536491                       # Average ticks per tags in use ((Tick/Count))
system.cpu.icache.tags.totalRefs              6510854                       # Total number of references to valid blocks. (Count)
system.cpu.icache.tags.sampledRefs              25605                       # Sample count of references to valid blocks. (Count)
system.cpu.icache.tags.avgRefs             254.280570                       # Average number of references to valid blocks. ((Count/Count))
system.cpu.icache.tags.warmupTick               77000                       # The tick when the warmup percentage was hit. (Tick)
system.cpu.icache.tags.occupancies::cpu.inst   413.536491                       # Average occupied blocks per tick, per requestor ((Count/Tick))
system.cpu.icache.tags.avgOccs::cpu.inst     0.807688                       # Average percentage of cache occupancy ((Ratio/Tick))
system.cpu.icache.tags.avgOccs::total        0.807688                       # Average percentage of cache occupancy ((Ratio/Tick))
system.cpu.icache.tags.occupanciesTaskId::1024          480                       # Occupied blocks per task id (Count)
system.cpu.icache.tags.ageTaskId_1024::0          127                       # Occupied blocks per task id, per block age (Count)
system.cpu.icache.tags.ageTaskId_1024::1           27                       # Occupied blocks per task id, per block age (Count)
system.cpu.icache.tags.ageTaskId_1024::3           75                       # Occupied blocks per task id, per block age (Count)
system.cpu.icache.tags.ageTaskId_1024::4          251                       # Occupied blocks per task id, per block age (Count)
system.cpu.icache.tags.ratioOccsTaskId::1024     0.937500                       # Ratio of occupied blocks and all blocks, per task id (Ratio)
system.cpu.icache.tags.tagAccesses           13048127                       # Number of tag accesses (Count)
system.cpu.icache.tags.dataAccesses          13048127                       # Number of data accesses (Count)
system.cpu.icache.tags.power_state.pwrStateResidencyTicks::UNDEFINED  17929220500                       # Cumulative time (in ticks) in various power states (Tick)
system.cpu.iew.idleCycles                           0                       # Number of cycles IEW is idle (Cycle)
[...]
system.mem_ctrls.dram.bwRead::cpu.inst       91402970                       # Total read bandwidth from this memory ((Byte/Second))
system.mem_ctrls.dram.bwRead::cpu.data     1062524720                       # Total read bandwidth from this memory ((Byte/Second))
system.mem_ctrls.dram.bwRead::total        1153927690                       # Total read bandwidth from this memory ((Byte/Second))
system.mem_ctrls.dram.bwInstRead::cpu.inst     91402970                       # Instruction read bandwidth from this memory ((Byte/Second))
system.mem_ctrls.dram.bwInstRead::total      91402970                       # Instruction read bandwidth from this memory ((Byte/Second))
system.mem_ctrls.dram.bwWrite::writebacks    403535223                       # Write bandwidth from this memory ((Byte/Second))
system.mem_ctrls.dram.bwWrite::total        403535223                       # Write bandwidth from this memory ((Byte/Second))
system.mem_ctrls.dram.bwTotal::writebacks    403535223                       # Total bandwidth to/from this memory ((Byte/Second))
system.mem_ctrls.dram.bwTotal::cpu.inst      91402970                       # Total bandwidth to/from this memory ((Byte/Second))
system.mem_ctrls.dram.bwTotal::cpu.data    1062524720                       # Total bandwidth to/from this memory ((Byte/Second))
system.mem_ctrls.dram.bwTotal::total       1557462914                       # Total bandwidth to/from this memory ((Byte/Second))
system.mem_ctrls.dram.readBursts               198330                       # Number of DRAM read bursts (Count)
system.mem_ctrls.dram.writeBursts               17760                       # Number of DRAM write bursts (Count)
system.mem_ctrls.dram.perBankRdBursts::0        15439                       # Per bank write bursts (Count)
system.mem_ctrls.dram.perBankRdBursts::1        16924                       # Per bank write bursts (Count)
system.mem_ctrls.dram.perBankRdBursts::2        13577                       # Per bank write bursts (Count)
system.mem_ctrls.dram.perBankRdBursts::3        25087                       # Per bank write bursts (Count)
system.mem_ctrls.dram.perBankRdBursts::4         1809                       # Per bank write bursts (Count)
system.mem_ctrls.dram.perBankRdBursts::5         3119                       # Per bank write bursts (Count)
system.mem_ctrls.dram.perBankRdBursts::6         3185                       # Per bank write bursts (Count)
system.mem_ctrls.dram.perBankRdBursts::7         3018                       # Per bank write bursts (Count)
system.mem_ctrls.dram.perBankRdBursts::8         5185                       # Per bank write bursts (Count)
system.mem_ctrls.dram.perBankRdBursts::9         9101                       # Per bank write bursts (Count)
system.mem_ctrls.dram.perBankRdBursts::10         8955                       # Per bank write bursts (Count)
system.mem_ctrls.dram.perBankRdBursts::11         9041                       # Per bank write bursts (Count)
system.mem_ctrls.dram.perBankRdBursts::12        42255                       # Per bank write bursts (Count)
system.mem_ctrls.dram.perBankRdBursts::13         9486                       # Per bank write bursts (Count)
system.mem_ctrls.dram.perBankRdBursts::14        23657                       # Per bank write bursts (Count)
system.mem_ctrls.dram.perBankRdBursts::15         8492                       # Per bank write bursts (Count)
system.mem_ctrls.dram.perBankWrBursts::0         1452                       # Per bank write bursts (Count)
system.mem_ctrls.dram.perBankWrBursts::1          529                       # Per bank write bursts (Count)
system.mem_ctrls.dram.perBankWrBursts::2         1848                       # Per bank write bursts (Count)
system.mem_ctrls.dram.perBankWrBursts::3          583                       # Per bank write bursts (Count)
system.mem_ctrls.dram.perBankWrBursts::4          694                       # Per bank write bursts (Count)
system.mem_ctrls.dram.perBankWrBursts::5          590                       # Per bank write bursts (Count)
system.mem_ctrls.dram.perBankWrBursts::6          658                       # Per bank write bursts (Count)
system.mem_ctrls.dram.perBankWrBursts::7          518                       # Per bank write bursts (Count)
system.mem_ctrls.dram.perBankWrBursts::8          598                       # Per bank write bursts (Count)
system.mem_ctrls.dram.perBankWrBursts::9          556                       # Per bank write bursts (Count)
system.mem_ctrls.dram.perBankWrBursts::10          526                       # Per bank write bursts (Count)
system.mem_ctrls.dram.perBankWrBursts::11          608                       # Per bank write bursts (Count)
system.mem_ctrls.dram.perBankWrBursts::12         1224                       # Per bank write bursts (Count)
system.mem_ctrls.dram.perBankWrBursts::13         2441                       # Per bank write bursts (Count)
system.mem_ctrls.dram.perBankWrBursts::14         2431                       # Per bank write bursts (Count)
system.mem_ctrls.dram.perBankWrBursts::15         2504                       # Per bank write bursts (Count)
system.mem_ctrls.dram.totQLat              1586433500                       # Total ticks spent queuing (Tick)
system.mem_ctrls.dram.totBusLat             991650000                       # Total ticks spent in databus transfers (Tick)
system.mem_ctrls.dram.totMemAccLat         5305121000                       # Total ticks spent from burst creation until serviced by the DRAM (Tick)
system.mem_ctrls.dram.avgQLat                 7998.96                       # Average queueing delay per DRAM burst ((Tick/Count))
system.mem_ctrls.dram.avgBusLat               5000.00                       # Average bus latency per DRAM burst ((Tick/Count))
system.mem_ctrls.dram.avgMemAccLat           26748.96                       # Average memory access latency per DRAM burst ((Tick/Count))
system.mem_ctrls.dram.readRowHits              163981                       # Number of row buffer hits during reads (Count)
system.mem_ctrls.dram.writeRowHits              16149                       # Number of row buffer hits during writes (Count)
system.mem_ctrls.dram.readRowHitRate            82.68                       # Row buffer hit rate for reads (Ratio)
system.mem_ctrls.dram.writeRowHitRate           90.93                       # Row buffer hit rate for writes (Ratio)
system.mem_ctrls.dram.bytesPerActivate::samples        35948                       # Bytes accessed per row activation (Byte)
system.mem_ctrls.dram.bytesPerActivate::mean   384.621342                       # Bytes accessed per row activation (Byte)
system.mem_ctrls.dram.bytesPerActivate::gmean   228.591267                       # Bytes accessed per row activation (Byte)
system.mem_ctrls.dram.bytesPerActivate::stdev   362.618828                       # Bytes accessed per row activation (Byte)
system.mem_ctrls.dram.bytesPerActivate::0-127        10540     29.32%     29.32% # Bytes accessed per row activation (Byte)
system.mem_ctrls.dram.bytesPerActivate::128-255         7603     21.15%     50.47% # Bytes accessed per row activation (Byte)
system.mem_ctrls.dram.bytesPerActivate::256-383         4889     13.60%     64.07% # Bytes accessed per row activation (Byte)
system.mem_ctrls.dram.bytesPerActivate::384-511         1251      3.48%     67.55% # Bytes accessed per row activation (Byte)
system.mem_ctrls.dram.bytesPerActivate::512-639         1190      3.31%     70.86% # Bytes accessed per row activation (Byte)
system.mem_ctrls.dram.bytesPerActivate::640-767         1807      5.03%     75.89% # Bytes accessed per row activation (Byte)
system.mem_ctrls.dram.bytesPerActivate::768-895         1926      5.36%     81.25% # Bytes accessed per row activation (Byte)
system.mem_ctrls.dram.bytesPerActivate::896-1023         1065      2.96%     84.21% # Bytes accessed per row activation (Byte)
system.mem_ctrls.dram.bytesPerActivate::1024-1151         5677     15.79%    100.00% # Bytes accessed per row activation (Byte)
system.mem_ctrls.dram.bytesPerActivate::total        35948                       # Bytes accessed per row activation (Byte)
system.mem_ctrls.dram.bytesRead              12693120                       # Total bytes read (Byte)
system.mem_ctrls.dram.bytesWritten            1136640                       # Total bytes written (Byte)
system.mem_ctrls.dram.avgRdBW              707.957159                       # Average DRAM read bandwidth in MiBytes/s ((Byte/Second))
system.mem_ctrls.dram.avgWrBW               63.395952                       # Average DRAM write bandwidth in MiBytes/s ((Byte/Second))
system.mem_ctrls.dram.peakBW                 12800.00                       # Theoretical peak bandwidth in MiByte/s ((Byte/Second))
system.mem_ctrls.dram.busUtil                    6.03                       # Data bus utilization in percentage (Ratio)
system.mem_ctrls.dram.busUtilRead                5.53                       # Data bus utilization in percentage for reads (Ratio)
system.mem_ctrls.dram.busUtilWrite               0.50                       # Data bus utilization in percentage for writes (Ratio)
system.mem_ctrls.dram.pageHitRate               83.36                       # Row buffer hit rate, read and write combined (Ratio)
system.mem_ctrls.dram.power_state.pwrStateResidencyTicks::UNDEFINED  17929220500                       # Cumulative time (in ticks) in various power states (Tick)
system.mem_ctrls.dram.rank0.actEnergy       129762360                       # Energy for activate commands per rank (pJ) (Joule)
system.mem_ctrls.dram.rank0.preEnergy        68951355                       # Energy for precharge commands per rank (pJ) (Joule)
system.mem_ctrls.dram.rank0.readEnergy      586608120                       # Energy for read commands per rank (pJ) (Joule)
system.mem_ctrls.dram.rank0.writeEnergy      35871840                       # Energy for write commands per rank (pJ) (Joule)
system.mem_ctrls.dram.rank0.refreshEnergy 1414901280.000000                       # Energy for refresh commands per rank (pJ) (Joule)
system.mem_ctrls.dram.rank0.actBackEnergy   7867646730                       # Energy for active background per rank (pJ) (Joule)
system.mem_ctrls.dram.rank0.preBackEnergy    259434240                       # Energy for precharge background per rank (pJ) (Joule)
system.mem_ctrls.dram.rank0.actPowerDownEnergy            0                       # Energy for active power-down per rank (pJ) (Joule)
system.mem_ctrls.dram.rank0.prePowerDownEnergy            0                       # Energy for precharge power-down per rank (pJ) (Joule)
system.mem_ctrls.dram.rank0.selfRefreshEnergy            0                       # Energy for self refresh per rank (pJ) (Joule)
system.mem_ctrls.dram.rank0.totalEnergy   10363175925                       # Total energy per rank (pJ) (Joule)
system.mem_ctrls.dram.rank0.averagePower   578.004823                       # Core power per rank (mW) (Watt)
system.mem_ctrls.dram.rank0.totalIdleTime            0                       # Total Idle time Per DRAM Rank (Tick)
system.mem_ctrls.dram.rank0.pwrStateTime::IDLE    608155750                       # Time in different power states (Tick)
system.mem_ctrls.dram.rank0.pwrStateTime::REF    598520000                       # Time in different power states (Tick)
system.mem_ctrls.dram.rank0.pwrStateTime::SREF            0                       # Time in different power states (Tick)
system.mem_ctrls.dram.rank0.pwrStateTime::PRE_PDN            0                       # Time in different power states (Tick)
system.mem_ctrls.dram.rank0.pwrStateTime::ACT  16722544750                       # Time in different power states (Tick)
system.mem_ctrls.dram.rank0.pwrStateTime::ACT_PDN            0                       # Time in different power states (Tick)
system.mem_ctrls.dram.rank1.actEnergy       126992040                       # Energy for activate commands per rank (pJ) (Joule)
system.mem_ctrls.dram.rank1.preEnergy        67471305                       # Energy for precharge commands per rank (pJ) (Joule)
system.mem_ctrls.dram.rank1.readEnergy      829468080                       # Energy for read commands per rank (pJ) (Joule)
system.mem_ctrls.dram.rank1.writeEnergy      56835360                       # Energy for write commands per rank (pJ) (Joule)
system.mem_ctrls.dram.rank1.refreshEnergy 1414901280.000000                       # Energy for refresh commands per rank (pJ) (Joule)
system.mem_ctrls.dram.rank1.actBackEnergy   7891311420                       # Energy for active background per rank (pJ) (Joule)
system.mem_ctrls.dram.rank1.preBackEnergy    239506080                       # Energy for precharge background per rank (pJ) (Joule)
system.mem_ctrls.dram.rank1.actPowerDownEnergy            0                       # Energy for active power-down per rank (pJ) (Joule)
system.mem_ctrls.dram.rank1.prePowerDownEnergy            0                       # Energy for precharge power-down per rank (pJ) (Joule)
system.mem_ctrls.dram.rank1.selfRefreshEnergy            0                       # Energy for self refresh per rank (pJ) (Joule)
system.mem_ctrls.dram.rank1.totalEnergy   10626485565                       # Total energy per rank (pJ) (Joule)
system.mem_ctrls.dram.rank1.averagePower   592.690885                       # Core power per rank (mW) (Watt)
system.mem_ctrls.dram.rank1.totalIdleTime            0                       # Total Idle time Per DRAM Rank (Tick)
system.mem_ctrls.dram.rank1.pwrStateTime::IDLE    555796500                       # Time in different power states (Tick)
system.mem_ctrls.dram.rank1.pwrStateTime::REF    598520000                       # Time in different power states (Tick)
system.mem_ctrls.dram.rank1.pwrStateTime::SREF            0                       # Time in different power states (Tick)
system.mem_ctrls.dram.rank1.pwrStateTime::PRE_PDN            0                       # Time in different power states (Tick)
system.mem_ctrls.dram.rank1.pwrStateTime::ACT  16774904000                       # Time in different power states (Tick)
system.mem_ctrls.dram.rank1.pwrStateTime::ACT_PDN            0                       # Time in different power states (Tick)
system.mem_ctrls.power_state.pwrStateResidencyTicks::UNDEFINED  17929220500                       # Cumulative time (in ticks) in various power states (Tick)
system.membus.transDist::ReadResp              254107                       # Transaction distribution (Count)
system.membus.transDist::WritebackDirty        113048                       # Transaction distribution (Count)
system.membus.transDist::WritebackClean         25125                       # Transaction distribution (Count)
system.membus.transDist::CleanEvict            187941                       # Transaction distribution (Count)
system.membus.transDist::ReadExReq              69158                       # Transaction distribution (Count)
system.membus.transDist::ReadExResp             69158                       # Transaction distribution (Count)
system.membus.transDist::ReadCleanReq           25606                       # Transaction distribution (Count)
system.membus.transDist::ReadSharedReq         228502                       # Transaction distribution (Count)
system.membus.transDist::InvalidateReq           3393                       # Transaction distribution (Count)
system.membus.pktCount_system.cpu.icache.mem_side_port::system.mem_ctrls.port        76336                       # Packet count per connected requestor and responder (Count)
system.membus.pktCount_system.cpu.dcache.mem_side_port::system.mem_ctrls.port       899702                       # Packet count per connected requestor and responder (Count)
system.membus.pktCount::total                  976038                       # Packet count per connected requestor and responder (Count)
system.membus.pktSize_system.cpu.icache.mem_side_port::system.mem_ctrls.port      3246720                       # Cumulative packet size per connected requestor and responder (Byte)
system.membus.pktSize_system.cpu.dcache.mem_side_port::system.mem_ctrls.port     26285312                       # Cumulative packet size per connected requestor and responder (Byte)
system.membus.pktSize::total                 29532032                       # Cumulative packet size per connected requestor and responder (Byte)
system.membus.snoops                                0                       # Total snoops (Count)
system.membus.snoopTraffic                          0                       # Total snoop traffic (Byte)
system.membus.snoopFanout::samples             326659                       # Request fanout histogram (Count)
system.membus.snoopFanout::mean              0.000006                       # Request fanout histogram (Count)
system.membus.snoopFanout::stdev             0.002474                       # Request fanout histogram (Count)
system.membus.snoopFanout::underflows               0      0.00%      0.00% # Request fanout histogram (Count)
system.membus.snoopFanout::0                   326657    100.00%    100.00% # Request fanout histogram (Count)
system.membus.snoopFanout::1                        2      0.00%    100.00% # Request fanout histogram (Count)
system.membus.snoopFanout::2                        0      0.00%    100.00% # Request fanout histogram (Count)
system.membus.snoopFanout::overflows                0      0.00%    100.00% # Request fanout histogram (Count)
system.membus.snoopFanout::min_value                0                       # Request fanout histogram (Count)
system.membus.snoopFanout::max_value                1                       # Request fanout histogram (Count)
system.membus.snoopFanout::total               326659                       # Request fanout histogram (Count)
system.membus.power_state.pwrStateResidencyTicks::UNDEFINED  17929220500                       # Cumulative time (in ticks) in various power states (Tick)
system.membus.reqLayer0.occupancy          1252654250                       # Layer occupancy (ticks) (Tick)
system.membus.reqLayer0.utilization               0.1                       # Layer utilization (Ratio)
system.membus.respLayer1.occupancy          128393738                       # Layer occupancy (ticks) (Tick)
system.membus.respLayer1.utilization              0.0                       # Layer utilization (Ratio)
system.membus.respLayer2.occupancy         1550169750                       # Layer occupancy (ticks) (Tick)
system.membus.respLayer2.utilization              0.1                       # Layer utilization (Ratio)
system.membus.snoop_filter.totRequests         652774                       # Total number of requests made to the snoop filter. (Count)
system.membus.snoop_filter.hitSingleRequests       326115                       # Number of requests hitting in the snoop filter with a single holder of the requested data. (Count)
system.membus.snoop_filter.hitMultiRequests            2                       # Number of requests hitting in the snoop filter with multiple (>1) holders of the requested data. (Count)
system.membus.snoop_filter.totSnoops                0                       # Total number of snoops made to the snoop filter. (Count)
system.membus.snoop_filter.hitSingleSnoops            0                       # Number of snoops hitting in the snoop filter with a single holder of the requested data. (Count)
system.membus.snoop_filter.hitMultiSnoops            0                       # Number of snoops hitting in the snoop filter with multiple (>1) holders of the requested data. (Count)
system.voltage_domain.voltage                       1                       # Voltage in Volts (Volt)
system.workload.inst.arm                            0                       # number of arm instructions executed (Count)
system.workload.inst.quiesce                        0                       # number of quiesce instructions executed (Count)

---------- End Simulation Statistics   ----------
