
---------- Begin Simulation Statistics ----------
simSeconds                                   0.010978                       # Number of seconds simulated (Second)
simTicks                                  10978191500                       # Number of ticks simulated (Tick)
finalTick                                 10978191500                       # Number of ticks from beginning of simulation (restored from checkpoints and never reset) (Tick)
simFreq                                  1000000000000                       # The number of ticks per simulated second ((Tick/Second))
hostSeconds                                     66.42                       # Real time elapsed on the host (Second)
hostTickRate                                165281201                       # The number of ticks simulated per host second (ticks/s) ((Tick/Second))
hostMemory                                     673224                       # Number of bytes of host memory used (Byte)
simInsts                                     46326279                       # Number of instructions simulated (Count)
simOps                                       50666649                       # Number of ops (including micro ops) simulated (Count)
hostInstRate                                   697461                       # Simulator instruction rate (inst/s) ((Count/Second))
hostOpRate                                     762807                       # Simulator op (including micro ops) rate (op/s) ((Count/Second))
system.clk_domain.clock                          1000                       # Clock period in ticks (Tick)
system.cpu.numCycles                         21956385                       # Number of cpu cycles simulated (Cycle)
system.cpu.numWorkItemsStarted                      0                       # Number of work items this cpu started (Count)
system.cpu.numWorkItemsCompleted                    0                       # Number of work items this cpu completed (Count)
system.cpu.instsAdded                        53646877                       # Number of instructions added to the IQ (excludes non-spec) (Count)
system.cpu.nonSpecInstsAdded                     4202                       # Number of non-speculative instructions added to the IQ (Count)
system.cpu.instsIssued                       53354589                       # Number of instructions issued (Count)
system.cpu.squashedInstsIssued                  25366                       # Number of squashed instructions issued (Count)
system.cpu.squashedInstsExamined              2984429                       # Number of squashed instructions iterated over during squash; mainly for profiling (Count)
system.cpu.squashedOperandsExamined           2142674                       # Number of squashed operands that are examined and possibly removed from graph (Count)
system.cpu.squashedNonSpecRemoved                  31                       # Number of squashed non-spec instructions that were removed (Count)
system.cpu.numIssuedDist::samples            21497926                       # Number of insts issued each cycle (Count)
system.cpu.numIssuedDist::mean               2.481848                       # Number of insts issued each cycle (Count)
system.cpu.numIssuedDist::stdev              2.061566                       # Number of insts issued each cycle (Count)
system.cpu.numIssuedDist::underflows                0      0.00%      0.00% # Number of insts issued each cycle (Count)
system.cpu.numIssuedDist::0                   4987748     23.20%     23.20% # Number of insts issued each cycle (Count)
system.cpu.numIssuedDist::1                   3224213     15.00%     38.20% # Number of insts issued each cycle (Count)
system.cpu.numIssuedDist::2                   3530768     16.42%     54.62% # Number of insts issued each cycle (Count)
system.cpu.numIssuedDist::3                   2887924     13.43%     68.06% # Number of insts issued each cycle (Count)
system.cpu.numIssuedDist::4                   2759312     12.84%     80.89% # Number of insts issued each cycle (Count)
system.cpu.numIssuedDist::5                   2241527     10.43%     91.32% # Number of insts issued each cycle (Count)
system.cpu.numIssuedDist::6                   1188563      5.53%     96.85% # Number of insts issued each cycle (Count)
system.cpu.numIssuedDist::7                    394161      1.83%     98.68% # Number of insts issued each cycle (Count)
system.cpu.numIssuedDist::8                    283710      1.32%    100.00% # Number of insts issued each cycle (Count)
system.cpu.numIssuedDist::overflows                 0      0.00%    100.00% # Number of insts issued each cycle (Count)
system.cpu.numIssuedDist::min_value                 0                       # Number of insts issued each cycle (Count)
system.cpu.numIssuedDist::max_value                 8                       # Number of insts issued each cycle (Count)
system.cpu.numIssuedDist::total              21497926                       # Number of insts issued each cycle (Count)
system.cpu.statFuBusy::No_OpClass                   0      0.00%      0.00% # attempts to use FU when none available (Count)
system.cpu.statFuBusy::IntAlu                  132944     17.01%     17.01% # attempts to use FU when none available (Count)
system.cpu.statFuBusy::IntMult                  81414     10.42%     27.43% # attempts to use FU when none available (Count)
system.cpu.statFuBusy::IntDiv                       0      0.00%     27.43% # attempts to use FU when none available (Count)
system.cpu.statFuBusy::FloatAdd                     0      0.00%     27.43% # attempts to use FU when none available (Count)
system.cpu.statFuBusy::FloatCmp                     0      0.00%     27.43% # attempts to use FU when none available (Count)
system.cpu.statFuBusy::FloatCvt                     0      0.00%     27.43% # attempts to use FU when none available (Count)
system.cpu.statFuBusy::FloatMult                    0      0.00%     27.43% # attempts to use FU when none available (Count)
system.cpu.statFuBusy::FloatMultAcc                 0      0.00%     27.43% # attempts to use FU when none available (Count)
system.cpu.statFuBusy::FloatDiv                     0      0.00%     27.43% # attempts to use FU when none available (Count)
system.cpu.statFuBusy::FloatMisc                    0      0.00%     27.43% # attempts to use FU when none available (Count)
system.cpu.statFuBusy::FloatSqrt                    0      0.00%     27.43% # attempts to use FU when none available (Count)
system.cpu.statFuBusy::SimdAdd                      0      0.00%     27.43% # attempts to use FU when none available (Count)
system.cpu.statFuBusy::SimdAddAcc                   0      0.00%     27.43% # attempts to use FU when none available (Count)
system.cpu.statFuBusy::SimdAlu                      3      0.00%     27.43% # attempts to use FU when none available (Count)
system.cpu.statFuBusy::SimdCmp                   4105      0.53%     27.95% # attempts to use FU when none available (Count)
system.cpu.statFuBusy::SimdCvt                      0      0.00%     27.95% # attempts to use FU when none available (Count)
system.cpu.statFuBusy::SimdMisc                     0      0.00%     27.95% # attempts to use FU when none available (Count)
system.cpu.statFuBusy::SimdMult                     0      0.00%     27.95% # attempts to use FU when none available (Count)
system.cpu.statFuBusy::SimdMultAcc                  0      0.00%     27.95% # attempts to use FU when none available (Count)
system.cpu.statFuBusy::SimdShift                    0      0.00%     27.95% # attempts to use FU when none available (Count)
system.cpu.statFuBusy::SimdShiftAcc                 0      0.00%     27.95% # attempts to use FU when none available (Count)
system.cpu.statFuBusy::SimdDiv                      0      0.00%     27.95% # attempts to use FU when none available (Count)
system.cpu.statFuBusy::SimdSqrt                     0      0.00%     27.95% # attempts to use FU when none available (Count)
system.cpu.statFuBusy::SimdFloatAdd                 0      0.00%     27.95% # attempts to use FU when none available (Count)
system.cpu.statFuBusy::SimdFloatAlu                 0      0.00%     27.95% # attempts to use FU when none available (Count)
system.cpu.statFuBusy::SimdFloatCmp                 0      0.00%     27.95% # attempts to use FU when none available (Count)
system.cpu.statFuBusy::SimdFloatCvt                 0      0.00%     27.95% # attempts to use FU when none available (Count)
system.cpu.statFuBusy::SimdFloatDiv                 0      0.00%     27.95% # attempts to use FU when none available (Count)
system.cpu.statFuBusy::SimdFloatMisc                0      0.00%     27.95% # attempts to use FU when none available (Count)
system.cpu.statFuBusy::SimdFloatMult                0      0.00%     27.95% # attempts to use FU when none available (Count)
system.cpu.statFuBusy::SimdFloatMultAcc             0      0.00%     27.95% # attempts to use FU when none available (Count)
system.cpu.statFuBusy::SimdFloatSqrt                0      0.00%     27.95% # attempts to use FU when none available (Count)
system.cpu.statFuBusy::SimdReduceAdd                0      0.00%     27.95% # attempts to use FU when none available (Count)
system.cpu.statFuBusy::SimdReduceAlu                0      0.00%     27.95% # attempts to use FU when none available (Count)
system.cpu.statFuBusy::SimdReduceCmp                0      0.00%     27.95% # attempts to use FU when none available (Count)
system.cpu.statFuBusy::SimdFloatReduceAdd            0      0.00%     27.95% # attempts to use FU when none available (Count)
system.cpu.statFuBusy::SimdFloatReduceCmp            0      0.00%     27.95% # attempts to use FU when none available (Count)
system.cpu.statFuBusy::SimdAes                      0      0.00%     27.95% # attempts to use FU when none available (Count)
system.cpu.statFuBusy::SimdAesMix                   0      0.00%     27.95% # attempts to use FU when none available (Count)
system.cpu.statFuBusy::SimdSha1Hash                 0      0.00%     27.95% # attempts to use FU when none available (Count)
system.cpu.statFuBusy::SimdSha1Hash2                0      0.00%     27.95% # attempts to use FU when none available (Count)
system.cpu.statFuBusy::SimdSha256Hash               0      0.00%     27.95% # attempts to use FU when none available (Count)
system.cpu.statFuBusy::SimdSha256Hash2              0      0.00%     27.95% # attempts to use FU when none available (Count)
system.cpu.statFuBusy::SimdShaSigma2                0      0.00%     27.95% # attempts to use FU when none available (Count)
system.cpu.statFuBusy::SimdShaSigma3                0      0.00%     27.95% # attempts to use FU when none available (Count)
system.cpu.statFuBusy::SimdPredAlu                  0      0.00%     27.95% # attempts to use FU when none available (Count)
system.cpu.statFuBusy::MemRead                 390500     49.97%     77.92% # attempts to use FU when none available (Count)
system.cpu.statFuBusy::MemWrite                172575     22.08%    100.00% # attempts to use FU when none available (Count)
system.cpu.statFuBusy::FloatMemRead                 0      0.00%    100.00% # attempts to use FU when none available (Count)
system.cpu.statFuBusy::FloatMemWrite                0      0.00%    100.00% # attempts to use FU when none available (Count)
system.cpu.statFuBusy::IprAccess                    0      0.00%    100.00% # attempts to use FU when none available (Count)
system.cpu.statFuBusy::InstPrefetch                 0      0.00%    100.00% # attempts to use FU when none available (Count)
system.cpu.statIssuedInstType_0::No_OpClass        27826      0.05%      0.05% # Number of instructions issued per FU type, per thread (Count)
system.cpu.statIssuedInstType_0::IntAlu      33941570     63.62%     63.67% # Number of instructions issued per FU type, per thread (Count)
system.cpu.statIssuedInstType_0::IntMult       641392      1.20%     64.87% # Number of instructions issued per FU type, per thread (Count)
system.cpu.statIssuedInstType_0::IntDiv        154484      0.29%     65.16% # Number of instructions issued per FU type, per thread (Count)
system.cpu.statIssuedInstType_0::FloatAdd       278543      0.52%     65.68% # Number of instructions issued per FU type, per thread (Count)
system.cpu.statIssuedInstType_0::FloatCmp        16386      0.03%     65.71% # Number of instructions issued per FU type, per thread (Count)
system.cpu.statIssuedInstType_0::FloatCvt            0      0.00%     65.71% # Number of instructions issued per FU type, per thread (Count)
system.cpu.statIssuedInstType_0::FloatMult       262154      0.49%     66.20% # Number of instructions issued per FU type, per thread (Count)
system.cpu.statIssuedInstType_0::FloatMultAcc            0      0.00%     66.20% # Number of instructions issued per FU type, per thread (Count)
system.cpu.statIssuedInstType_0::FloatDiv            0      0.00%     66.20% # Number of instructions issued per FU type, per thread (Count)
system.cpu.statIssuedInstType_0::FloatMisc        61373      0.12%     66.32% # Number of instructions issued per FU type, per thread (Count)
system.cpu.statIssuedInstType_0::FloatSqrt            0      0.00%     66.32% # Number of instructions issued per FU type, per thread (Count)
system.cpu.statIssuedInstType_0::SimdAdd        63186      0.12%     66.44% # Number of instructions issued per FU type, per thread (Count)
system.cpu.statIssuedInstType_0::SimdAddAcc            0      0.00%     66.44% # Number of instructions issued per FU type, per thread (Count)
system.cpu.statIssuedInstType_0::SimdAlu       118777      0.22%     66.66% # Number of instructions issued per FU type, per thread (Count)
system.cpu.statIssuedInstType_0::SimdCmp       111208      0.21%     66.87% # Number of instructions issued per FU type, per thread (Count)
system.cpu.statIssuedInstType_0::SimdCvt            0      0.00%     66.87% # Number of instructions issued per FU type, per thread (Count)
system.cpu.statIssuedInstType_0::SimdMisc        76354      0.14%     67.01% # Number of instructions issued per FU type, per thread (Count)
system.cpu.statIssuedInstType_0::SimdMult            0      0.00%     67.01% # Number of instructions issued per FU type, per thread (Count)
system.cpu.statIssuedInstType_0::SimdMultAcc            0      0.00%     67.01% # Number of instructions issued per FU type, per thread (Count)
system.cpu.statIssuedInstType_0::SimdShift            0      0.00%     67.01% # Number of instructions issued per FU type, per thread (Count)
system.cpu.statIssuedInstType_0::SimdShiftAcc            0      0.00%     67.01% # Number of instructions issued per FU type, per thread (Count)
system.cpu.statIssuedInstType_0::SimdDiv            0      0.00%     67.01% # Number of instructions issued per FU type, per thread (Count)
system.cpu.statIssuedInstType_0::SimdSqrt            0      0.00%     67.01% # Number of instructions issued per FU type, per thread (Count)
system.cpu.statIssuedInstType_0::SimdFloatAdd            0      0.00%     67.01% # Number of instructions issued per FU type, per thread (Count)
system.cpu.statIssuedInstType_0::SimdFloatAlu            0      0.00%     67.01% # Number of instructions issued per FU type, per thread (Count)
system.cpu.statIssuedInstType_0::SimdFloatCmp            0      0.00%     67.01% # Number of instructions issued per FU type, per thread (Count)
system.cpu.statIssuedInstType_0::SimdFloatCvt            0      0.00%     67.01% # Number of instructions issued per FU type, per thread (Count)
system.cpu.statIssuedInstType_0::SimdFloatDiv            0      0.00%     67.01% # Number of instructions issued per FU type, per thread (Count)
system.cpu.statIssuedInstType_0::SimdFloatMisc            0      0.00%     67.01% # Number of instructions issued per FU type, per thread (Count)
system.cpu.statIssuedInstType_0::SimdFloatMult            0      0.00%     67.01% # Number of instructions issued per FU type, per thread (Count)
system.cpu.statIssuedInstType_0::SimdFloatMultAcc            0      0.00%     67.01% # Number of instructions issued per FU type, per thread (Count)
system.cpu.statIssuedInstType_0::SimdFloatSqrt            0      0.00%     67.01% # Number of instructions issued per FU type, per thread (Count)
system.cpu.statIssuedInstType_0::SimdReduceAdd            0      0.00%     67.01% # Number of instructions issued per FU type, per thread (Count)
system.cpu.statIssuedInstType_0::SimdReduceAlu            0      0.00%     67.01% # Number of instructions issued per FU type, per thread (Count)
system.cpu.statIssuedInstType_0::SimdReduceCmp            0      0.00%     67.01% # Number of instructions issued per FU type, per thread (Count)
system.cpu.statIssuedInstType_0::SimdFloatReduceAdd            0      0.00%     67.01% # Number of instructions issued per FU type, per thread (Count)
system.cpu.statIssuedInstType_0::SimdFloatReduceCmp            0      0.00%     67.01% # Number of instructions issued per FU type, per thread (Count)
system.cpu.statIssuedInstType_0::SimdAes            0      0.00%     67.01% # Number of instructions issued per FU type, per thread (Count)
system.cpu.statIssuedInstType_0::SimdAesMix            0      0.00%     67.01% # Number of instructions issued per FU type, per thread (Count)
system.cpu.statIssuedInstType_0::SimdSha1Hash            0      0.00%     67.01% # Number of instructions issued per FU type, per thread (Count)
system.cpu.statIssuedInstType_0::SimdSha1Hash2            0      0.00%     67.01% # Number of instructions issued per FU type, per thread (Count)
system.cpu.statIssuedInstType_0::SimdSha256Hash            0      0.00%     67.01% # Number of instructions issued per FU type, per thread (Count)
system.cpu.statIssuedInstType_0::SimdSha256Hash2            0      0.00%     67.01% # Number of instructions issued per FU type, per thread (Count)
system.cpu.statIssuedInstType_0::SimdShaSigma2            0      0.00%     67.01% # Number of instructions issued per FU type, per thread (Count)
system.cpu.statIssuedInstType_0::SimdShaSigma3            0      0.00%     67.01% # Number of instructions issued per FU type, per thread (Count)
system.cpu.statIssuedInstType_0::SimdPredAlu            0      0.00%     67.01% # Number of instructions issued per FU type, per thread (Count)
system.cpu.statIssuedInstType_0::MemRead     12054818     22.59%     89.60% # Number of instructions issued per FU type, per thread (Count)
system.cpu.statIssuedInstType_0::MemWrite      5546518     10.40%    100.00% # Number of instructions issued per FU type, per thread (Count)
system.cpu.statIssuedInstType_0::FloatMemRead            0      0.00%    100.00% # Number of instructions issued per FU type, per thread (Count)
system.cpu.statIssuedInstType_0::FloatMemWrite            0      0.00%    100.00% # Number of instructions issued per FU type, per thread (Count)
system.cpu.statIssuedInstType_0::IprAccess            0      0.00%    100.00% # Number of instructions issued per FU type, per thread (Count)
system.cpu.statIssuedInstType_0::InstPrefetch            0      0.00%    100.00% # Number of instructions issued per FU type, per thread (Count)
system.cpu.statIssuedInstType_0::total       53354589                       # Number of instructions issued per FU type, per thread (Count)
system.cpu.issueRate                         2.430026                       # Inst issue rate ((Count/Cycle))
system.cpu.fuBusy                              781541                       # FU busy when requested (Count)
system.cpu.fuBusyRate                        0.014648                       # FU busy rate (busy events/executed inst) ((Count/Count))
system.cpu.intInstQueueReads                123259948                       # Number of integer instruction queue reads (Count)
system.cpu.intInstQueueWrites                53720308                       # Number of integer instruction queue writes (Count)
system.cpu.intInstQueueWakeupAccesses        49525523                       # Number of integer instruction queue wakeup accesses (Count)
system.cpu.fpInstQueueReads                         0                       # Number of floating instruction queue reads (Count)
system.cpu.fpInstQueueWrites                        0                       # Number of floating instruction queue writes (Count)
system.cpu.fpInstQueueWakeupAccesses                0                       # Number of floating instruction queue wakeup accesses (Count)
system.cpu.vecInstQueueReads                  5754063                       # Number of vector instruction queue reads (Count)
system.cpu.vecInstQueueWrites                 2915919                       # Number of vector instruction queue writes (Count)
system.cpu.vecInstQueueWakeupAccesses         2860365                       # Number of vector instruction queue wakeup accesses (Count)
system.cpu.intAluAccesses                    51248649                       # Number of integer alu accesses (Count)
system.cpu.fpAluAccesses                            0                       # Number of floating point alu accesses (Count)
system.cpu.vecAluAccesses                     2859655                       # Number of vector alu accesses (Count)
system.cpu.numInsts                          53203738                       # Number of executed instructions (Count)
system.cpu.numLoadInsts                      11998603                       # Number of load instructions executed (Count)
system.cpu.numSquashedInsts                    150851                       # Number of squashed instructions skipped in execute (Count)
system.cpu.numSwp                                   0                       # Number of swp insts executed (Count)
system.cpu.numNop                               65654                       # Number of nop insts executed (Count)
system.cpu.numRefs                           17532519                       # Number of memory reference insts executed (Count)
system.cpu.numBranches                        6976659                       # Number of branches executed (Count)
system.cpu.numStoreInsts                      5533916                       # Number of stores executed (Count)
system.cpu.numRate                           2.423156                       # Inst execution rate ((Count/Cycle))
system.cpu.timesIdled                           20914                       # Number of times that the entire CPU went into an idle state and unscheduled itself (Count)
system.cpu.idleCycles                          458459                       # Total number of cycles that the CPU has spent unscheduled due to idling (Cycle)
system.cpu.committedInsts                    46326279                       # Number of Instructions Simulated (Count)
system.cpu.committedOps                      50666649                       # Number of Ops (including micro ops) Simulated (Count)
system.cpu.cpi                               0.473951                       # CPI: Cycles Per Instruction ((Cycle/Count))
system.cpu.totalCpi                          0.473951                       # CPI: Total CPI of All Threads ((Cycle/Count))
system.cpu.ipc                               2.109923                       # IPC: Instructions Per Cycle ((Count/Cycle))
system.cpu.totalIpc                          2.109923                       # IPC: Total IPC of All Threads ((Count/Cycle))
system.cpu.intRegfileReads                   63760990                       # Number of integer regfile reads (Count)
system.cpu.intRegfileWrites                  39300810                       # Number of integer regfile writes (Count)
system.cpu.vecRegfileReads                    2431483                       # number of vector regfile reads (Count)
system.cpu.vecRegfileWrites                   2172983                       # number of vector regfile writes (Count)
system.cpu.ccRegfileReads                    14905488                       # number of cc regfile reads (Count)
system.cpu.ccRegfileWrites                   14739774                       # number of cc regfile writes (Count)
system.cpu.miscRegfileReads                 100700000                       # number of misc regfile reads (Count)
system.cpu.miscRegfileWrites                   561209                       # number of misc regfile writes (Count)
system.cpu.MemDepUnit__0.insertedLoads       11478033                       # Number of loads inserted to the mem dependence unit. (Count)
system.cpu.MemDepUnit__0.insertedStores       5622072                       # Number of stores inserted to the mem dependence unit. (Count)
system.cpu.MemDepUnit__0.conflictingLoads      2737078                       # Number of conflicting loads. (Count)
system.cpu.MemDepUnit__0.conflictingStores       754031                       # Number of conflicting stores. (Count)
system.cpu.MemDepUnit__1.insertedLoads              0                       # Number of loads inserted to the mem dependence unit. (Count)
system.cpu.MemDepUnit__1.insertedStores             0                       # Number of stores inserted to the mem dependence unit. (Count)
system.cpu.MemDepUnit__1.conflictingLoads            0                       # Number of conflicting loads. (Count)
system.cpu.MemDepUnit__1.conflictingStores            0                       # Number of conflicting stores. (Count)
system.cpu.MemDepUnit__2.insertedLoads              0                       # Number of loads inserted to the mem dependence unit. (Count)
system.cpu.MemDepUnit__2.insertedStores             0                       # Number of stores inserted to the mem dependence unit. (Count)
system.cpu.MemDepUnit__2.conflictingLoads            0                       # Number of conflicting loads. (Count)
system.cpu.MemDepUnit__2.conflictingStores            0                       # Number of conflicting stores. (Count)
system.cpu.MemDepUnit__3.insertedLoads              0                       # Number of loads inserted to the mem dependence unit. (Count)
system.cpu.MemDepUnit__3.insertedStores             0                       # Number of stores inserted to the mem dependence unit. (Count)
system.cpu.MemDepUnit__3.conflictingLoads            0                       # Number of conflicting loads. (Count)
system.cpu.MemDepUnit__3.conflictingStores            0                       # Number of conflicting stores. (Count)
system.cpu.branchPred.lookups                 7499742                       # Number of BP lookups (Count)
system.cpu.branchPred.condPredicted           5675718                       # Number of conditional branches predicted (Count)
system.cpu.branchPred.condIncorrect            105834                       # Number of conditional branches incorrect (Count)
system.cpu.branchPred.BTBLookups              4237493                       # Number of BTB lookups (Count)
system.cpu.branchPred.BTBHits                 4214411                       # Number of BTB hits (Count)
system.cpu.branchPred.BTBHitRatio            0.994553                       # BTB Hit Ratio (Ratio)
system.cpu.branchPred.RASUsed                  569162                       # Number of times the RAS was used to get a target. (Count)
system.cpu.branchPred.RASIncorrect                  3                       # Number of incorrect RAS predictions. (Count)
system.cpu.branchPred.indirectLookups           76835                       # Number of indirect predictor lookups. (Count)
system.cpu.branchPred.indirectHits              75337                       # Number of indirect target hits. (Count)
system.cpu.branchPred.indirectMisses             1498                       # Number of indirect misses. (Count)
system.cpu.branchPred.indirectMispredicted          102                       # Number of mispredicted indirect branches. (Count)
system.cpu.commit.commitSquashedInsts         2989713                       # The number of squashed insts skipped by commit (Count)
system.cpu.commit.commitNonSpecStalls            4171                       # The number of times commit has been forced to stall to communicate backwards (Count)
system.cpu.commit.branchMispredicts             92863                       # The number of times a branch was mispredicted (Count)
system.cpu.commit.numCommittedDist::samples     21072853                       # Number of insts commited each cycle (Count)
system.cpu.commit.numCommittedDist::mean     2.407202                       # Number of insts commited each cycle (Count)
system.cpu.commit.numCommittedDist::stdev     2.980431                       # Number of insts commited each cycle (Count)
system.cpu.commit.numCommittedDist::underflows            0      0.00%      0.00% # Number of insts commited each cycle (Count)
system.cpu.commit.numCommittedDist::0         7932638     37.64%     37.64% # Number of insts commited each cycle (Count)
system.cpu.commit.numCommittedDist::1         4500399     21.36%     59.00% # Number of insts commited each cycle (Count)
system.cpu.commit.numCommittedDist::2         2015870      9.57%     68.57% # Number of insts commited each cycle (Count)
system.cpu.commit.numCommittedDist::3         1262035      5.99%     74.56% # Number of insts commited each cycle (Count)
system.cpu.commit.numCommittedDist::4          471297      2.24%     76.79% # Number of insts commited each cycle (Count)
system.cpu.commit.numCommittedDist::5          564945      2.68%     79.47% # Number of insts commited each cycle (Count)
system.cpu.commit.numCommittedDist::6          236377      1.12%     80.59% # Number of insts commited each cycle (Count)
system.cpu.commit.numCommittedDist::7          434144      2.06%     82.65% # Number of insts commited each cycle (Count)
system.cpu.commit.numCommittedDist::8         3655148     17.35%    100.00% # Number of insts commited each cycle (Count)
system.cpu.commit.numCommittedDist::overflows            0      0.00%    100.00% # Number of insts commited each cycle (Count)
system.cpu.commit.numCommittedDist::min_value            0                       # Number of insts commited each cycle (Count)
system.cpu.commit.numCommittedDist::max_value            8                       # Number of insts commited each cycle (Count)
system.cpu.commit.numCommittedDist::total     21072853                       # Number of insts commited each cycle (Count)
system.cpu.commit.instsCommitted             46386241                       # Number of instructions committed (Count)
system.cpu.commit.opsCommitted               50726611                       # Number of ops (including micro ops) committed (Count)
system.cpu.commit.memRefs                    16302297                       # Number of memory references committed (Count)
system.cpu.commit.loads                      11006940                       # Number of loads committed (Count)
system.cpu.commit.amos                             20                       # Number of atomic instructions committed (Count)
system.cpu.commit.membars                          24                       # Number of memory barriers committed (Count)
system.cpu.commit.branches                    6723046                       # Number of branches committed (Count)
system.cpu.commit.vectorInstructions          2842563                       # Number of committed Vector instructions. (Count)
system.cpu.commit.floating                          0                       # Number of committed floating point instructions. (Count)
system.cpu.commit.integer                    45425700                       # Number of committed integer instructions. (Count)
system.cpu.commit.functionCalls                508101                       # Number of function calls committed. (Count)
system.cpu.commit.committedInstType_0::No_OpClass        27678      0.05%      0.05% # Class of committed instruction (Count)
system.cpu.commit.committedInstType_0::IntAlu     32627942     64.32%     64.38% # Class of committed instruction (Count)
system.cpu.commit.committedInstType_0::IntMult       641224      1.26%     65.64% # Class of committed instruction (Count)
system.cpu.commit.committedInstType_0::IntDiv       153813      0.30%     65.94% # Class of committed instruction (Count)
system.cpu.commit.committedInstType_0::FloatAdd       278528      0.55%     66.49% # Class of committed instruction (Count)
system.cpu.commit.committedInstType_0::FloatCmp        16384      0.03%     66.52% # Class of committed instruction (Count)
system.cpu.commit.committedInstType_0::FloatCvt            0      0.00%     66.52% # Class of committed instruction (Count)
system.cpu.commit.committedInstType_0::FloatMult       262144      0.52%     67.04% # Class of committed instruction (Count)
system.cpu.commit.committedInstType_0::FloatMultAcc            0      0.00%     67.04% # Class of committed instruction (Count)
system.cpu.commit.committedInstType_0::FloatDiv            0      0.00%     67.04% # Class of committed instruction (Count)
system.cpu.commit.committedInstType_0::FloatMisc        49152      0.10%     67.14% # Class of committed instruction (Count)
system.cpu.commit.committedInstType_0::FloatSqrt            0      0.00%     67.14% # Class of committed instruction (Count)
system.cpu.commit.committedInstType_0::SimdAdd        62740      0.12%     67.26% # Class of committed instruction (Count)
system.cpu.commit.committedInstType_0::SimdAddAcc            0      0.00%     67.26% # Class of committed instruction (Count)
system.cpu.commit.committedInstType_0::SimdAlu       118039      0.23%     67.49% # Class of committed instruction (Count)
system.cpu.commit.committedInstType_0::SimdCmp       110616      0.22%     67.71% # Class of committed instruction (Count)
system.cpu.commit.committedInstType_0::SimdCvt            0      0.00%     67.71% # Class of committed instruction (Count)
system.cpu.commit.committedInstType_0::SimdMisc        76054      0.15%     67.86% # Class of committed instruction (Count)
system.cpu.commit.committedInstType_0::SimdMult            0      0.00%     67.86% # Class of committed instruction (Count)
system.cpu.commit.committedInstType_0::SimdMultAcc            0      0.00%     67.86% # Class of committed instruction (Count)
system.cpu.commit.committedInstType_0::SimdShift            0      0.00%     67.86% # Class of committed instruction (Count)
system.cpu.commit.committedInstType_0::SimdShiftAcc            0      0.00%     67.86% # Class of committed instruction (Count)
system.cpu.commit.committedInstType_0::SimdDiv            0      0.00%     67.86% # Class of committed instruction (Count)
system.cpu.commit.committedInstType_0::SimdSqrt            0      0.00%     67.86% # Class of committed instruction (Count)
system.cpu.commit.committedInstType_0::SimdFloatAdd            0      0.00%     67.86% # Class of committed instruction (Count)
system.cpu.commit.committedInstType_0::SimdFloatAlu            0      0.00%     67.86% # Class of committed instruction (Count)
system.cpu.commit.committedInstType_0::SimdFloatCmp            0      0.00%     67.86% # Class of committed instruction (Count)
system.cpu.commit.committedInstType_0::SimdFloatCvt            0      0.00%     67.86% # Class of committed instruction (Count)
system.cpu.commit.committedInstType_0::SimdFloatDiv            0      0.00%     67.86% # Class of committed instruction (Count)
system.cpu.commit.committedInstType_0::SimdFloatMisc            0      0.00%     67.86% # Class of committed instruction (Count)
system.cpu.commit.committedInstType_0::SimdFloatMult            0      0.00%     67.86% # Class of committed instruction (Count)
system.cpu.commit.committedInstType_0::SimdFloatMultAcc            0      0.00%     67.86% # Class of committed instruction (Count)
system.cpu.commit.committedInstType_0::SimdFloatSqrt            0      0.00%     67.86% # Class of committed instruction (Count)
system.cpu.commit.committedInstType_0::SimdReduceAdd            0      0.00%     67.86% # Class of committed instruction (Count)
system.cpu.commit.committedInstType_0::SimdReduceAlu            0      0.00%     67.86% # Class of committed instruction (Count)
system.cpu.commit.committedInstType_0::SimdReduceCmp            0      0.00%     67.86% # Class of committed instruction (Count)
system.cpu.commit.committedInstType_0::SimdFloatReduceAdd            0      0.00%     67.86% # Class of committed instruction (Count)
system.cpu.commit.committedInstType_0::SimdFloatReduceCmp            0      0.00%     67.86% # Class of committed instruction (Count)
system.cpu.commit.committedInstType_0::SimdAes            0      0.00%     67.86% # Class of committed instruction (Count)
system.cpu.commit.committedInstType_0::SimdAesMix            0      0.00%     67.86% # Class of committed instruction (Count)
system.cpu.commit.committedInstType_0::SimdSha1Hash            0      0.00%     67.86% # Class of committed instruction (Count)
system.cpu.commit.committedInstType_0::SimdSha1Hash2            0      0.00%     67.86% # Class of committed instruction (Count)
system.cpu.commit.committedInstType_0::SimdSha256Hash            0      0.00%     67.86% # Class of committed instruction (Count)
system.cpu.commit.committedInstType_0::SimdSha256Hash2            0      0.00%     67.86% # Class of committed instruction (Count)
system.cpu.commit.committedInstType_0::SimdShaSigma2            0      0.00%     67.86% # Class of committed instruction (Count)
system.cpu.commit.committedInstType_0::SimdShaSigma3            0      0.00%     67.86% # Class of committed instruction (Count)
system.cpu.commit.committedInstType_0::SimdPredAlu            0      0.00%     67.86% # Class of committed instruction (Count)
system.cpu.commit.committedInstType_0::MemRead     11006940     21.70%     89.56% # Class of committed instruction (Count)
system.cpu.commit.committedInstType_0::MemWrite      5295357     10.44%    100.00% # Class of committed instruction (Count)
system.cpu.commit.committedInstType_0::FloatMemRead            0      0.00%    100.00% # Class of committed instruction (Count)
system.cpu.commit.committedInstType_0::FloatMemWrite            0      0.00%    100.00% # Class of committed instruction (Count)
system.cpu.commit.committedInstType_0::IprAccess            0      0.00%    100.00% # Class of committed instruction (Count)
system.cpu.commit.committedInstType_0::InstPrefetch            0      0.00%    100.00% # Class of committed instruction (Count)
system.cpu.commit.committedInstType_0::total     50726611                       # Class of committed instruction (Count)
system.cpu.commit.commitEligibleSamples       3655148                       # number cycles where commit BW limit reached (Cycle)
system.cpu.dcache.demandHits::cpu.data       13993821                       # number of demand (read+write) hits (Count)
system.cpu.dcache.demandHits::total          13993821                       # number of demand (read+write) hits (Count)
system.cpu.dcache.overallHits::cpu.data      14023613                       # number of overall hits (Count)
system.cpu.dcache.overallHits::total         14023613                       # number of overall hits (Count)
system.cpu.dcache.demandMisses::cpu.data        14042                       # number of demand (read+write) misses (Count)
system.cpu.dcache.demandMisses::total           14042                       # number of demand (read+write) misses (Count)
system.cpu.dcache.overallMisses::cpu.data        14047                       # number of overall misses (Count)
system.cpu.dcache.overallMisses::total          14047                       # number of overall misses (Count)
system.cpu.dcache.demandMissLatency::cpu.data    771319222                       # number of demand (read+write) miss ticks (Tick)
system.cpu.dcache.demandMissLatency::total    771319222                       # number of demand (read+write) miss ticks (Tick)
system.cpu.dcache.overallMissLatency::cpu.data    771319222                       # number of overall miss ticks (Tick)
system.cpu.dcache.overallMissLatency::total    771319222                       # number of overall miss ticks (Tick)
system.cpu.dcache.demandAccesses::cpu.data     14007863                       # number of demand (read+write) accesses (Count)
system.cpu.dcache.demandAccesses::total      14007863                       # number of demand (read+write) accesses (Count)
system.cpu.dcache.overallAccesses::cpu.data     14037660                       # number of overall (read+write) accesses (Count)
system.cpu.dcache.overallAccesses::total     14037660                       # number of overall (read+write) accesses (Count)
system.cpu.dcache.demandMissRate::cpu.data     0.001002                       # miss rate for demand accesses (Ratio)
system.cpu.dcache.demandMissRate::total      0.001002                       # miss rate for demand accesses (Ratio)
system.cpu.dcache.overallMissRate::cpu.data     0.001001                       # miss rate for overall accesses (Ratio)
system.cpu.dcache.overallMissRate::total     0.001001                       # miss rate for overall accesses (Ratio)
system.cpu.dcache.demandAvgMissLatency::cpu.data 54929.441817                       # average overall miss latency ((Cycle/Count))
system.cpu.dcache.demandAvgMissLatency::total 54929.441817                       # average overall miss latency ((Cycle/Count))
system.cpu.dcache.overallAvgMissLatency::cpu.data 54909.889799                       # average overall miss latency ((Cycle/Count))
system.cpu.dcache.overallAvgMissLatency::total 54909.889799                       # average overall miss latency ((Cycle/Count))
system.cpu.dcache.blockedCycles::no_mshrs         8066                       # number of cycles access was blocked (Cycle)
system.cpu.dcache.blockedCycles::no_targets            0                       # number of cycles access was blocked (Cycle)
system.cpu.dcache.blockedCauses::no_mshrs         1519                       # number of times access was blocked (Count)
system.cpu.dcache.blockedCauses::no_targets            0                       # number of times access was blocked (Count)
system.cpu.dcache.avgBlocked::no_mshrs       5.310072                       # average number of cycles each access was blocked ((Cycle/Count))
system.cpu.dcache.avgBlocked::no_targets          nan                       # average number of cycles each access was blocked ((Cycle/Count))
system.cpu.dcache.writebacks::writebacks         5567                       # number of writebacks (Count)
system.cpu.dcache.writebacks::total              5567                       # number of writebacks (Count)
system.cpu.dcache.demandMshrHits::cpu.data         5718                       # number of demand (read+write) MSHR hits (Count)
system.cpu.dcache.demandMshrHits::total          5718                       # number of demand (read+write) MSHR hits (Count)
system.cpu.dcache.overallMshrHits::cpu.data         5718                       # number of overall MSHR hits (Count)
system.cpu.dcache.overallMshrHits::total         5718                       # number of overall MSHR hits (Count)
system.cpu.dcache.demandMshrMisses::cpu.data         8324                       # number of demand (read+write) MSHR misses (Count)
system.cpu.dcache.demandMshrMisses::total         8324                       # number of demand (read+write) MSHR misses (Count)
system.cpu.dcache.overallMshrMisses::cpu.data         8329                       # number of overall MSHR misses (Count)
system.cpu.dcache.overallMshrMisses::total         8329                       # number of overall MSHR misses (Count)
system.cpu.dcache.demandMshrMissLatency::cpu.data    419180747                       # number of demand (read+write) MSHR miss ticks (Tick)
system.cpu.dcache.demandMshrMissLatency::total    419180747                       # number of demand (read+write) MSHR miss ticks (Tick)
system.cpu.dcache.overallMshrMissLatency::cpu.data    419544247                       # number of overall MSHR miss ticks (Tick)
system.cpu.dcache.overallMshrMissLatency::total    419544247                       # number of overall MSHR miss ticks (Tick)
system.cpu.dcache.demandMshrMissRate::cpu.data     0.000594                       # mshr miss ratio for demand accesses (Ratio)
system.cpu.dcache.demandMshrMissRate::total     0.000594                       # mshr miss ratio for demand accesses (Ratio)
system.cpu.dcache.overallMshrMissRate::cpu.data     0.000593                       # mshr miss ratio for overall accesses (Ratio)
system.cpu.dcache.overallMshrMissRate::total     0.000593                       # mshr miss ratio for overall accesses (Ratio)
system.cpu.dcache.demandAvgMshrMissLatency::cpu.data 50358.090702                       # average overall mshr miss latency ((Cycle/Count))
system.cpu.dcache.demandAvgMshrMissLatency::total 50358.090702                       # average overall mshr miss latency ((Cycle/Count))
system.cpu.dcache.overallAvgMshrMissLatency::cpu.data 50371.502821                       # average overall mshr miss latency ((Cycle/Count))
system.cpu.dcache.overallAvgMshrMissLatency::total 50371.502821                       # average overall mshr miss latency ((Cycle/Count))
system.cpu.dcache.replacements                   6282                       # number of replacements (Count)
system.cpu.dcache.LoadLockedReq.hits::cpu.data            5                       # number of LoadLockedReq hits (Count)
system.cpu.dcache.LoadLockedReq.hits::total            5                       # number of LoadLockedReq hits (Count)
system.cpu.dcache.LoadLockedReq.accesses::cpu.data            5                       # number of LoadLockedReq accesses(hits+misses) (Count)
system.cpu.dcache.LoadLockedReq.accesses::total            5                       # number of LoadLockedReq accesses(hits+misses) (Count)
system.cpu.dcache.ReadReq.hits::cpu.data      8701833                       # number of ReadReq hits (Count)
system.cpu.dcache.ReadReq.hits::total         8701833                       # number of ReadReq hits (Count)
system.cpu.dcache.ReadReq.misses::cpu.data        10695                       # number of ReadReq misses (Count)
system.cpu.dcache.ReadReq.misses::total         10695                       # number of ReadReq misses (Count)
system.cpu.dcache.ReadReq.missLatency::cpu.data    650992500                       # number of ReadReq miss ticks (Tick)
system.cpu.dcache.ReadReq.missLatency::total    650992500                       # number of ReadReq miss ticks (Tick)
system.cpu.dcache.ReadReq.accesses::cpu.data      8712528                       # number of ReadReq accesses(hits+misses) (Count)
system.cpu.dcache.ReadReq.accesses::total      8712528                       # number of ReadReq accesses(hits+misses) (Count)
system.cpu.dcache.ReadReq.missRate::cpu.data     0.001228                       # miss rate for ReadReq accesses (Ratio)
system.cpu.dcache.ReadReq.missRate::total     0.001228                       # miss rate for ReadReq accesses (Ratio)
system.cpu.dcache.ReadReq.avgMissLatency::cpu.data 60868.863955                       # average ReadReq miss latency ((Tick/Count))
system.cpu.dcache.ReadReq.avgMissLatency::total 60868.863955                       # average ReadReq miss latency ((Tick/Count))
system.cpu.dcache.ReadReq.mshrHits::cpu.data         5203                       # number of ReadReq MSHR hits (Count)
system.cpu.dcache.ReadReq.mshrHits::total         5203                       # number of ReadReq MSHR hits (Count)
system.cpu.dcache.ReadReq.mshrMisses::cpu.data         5492                       # number of ReadReq MSHR misses (Count)
system.cpu.dcache.ReadReq.mshrMisses::total         5492                       # number of ReadReq MSHR misses (Count)
system.cpu.dcache.ReadReq.mshrMissLatency::cpu.data    326653000                       # number of ReadReq MSHR miss ticks (Tick)
system.cpu.dcache.ReadReq.mshrMissLatency::total    326653000                       # number of ReadReq MSHR miss ticks (Tick)
system.cpu.dcache.ReadReq.mshrMissRate::cpu.data     0.000630                       # mshr miss rate for ReadReq accesses (Ratio)
system.cpu.dcache.ReadReq.mshrMissRate::total     0.000630                       # mshr miss rate for ReadReq accesses (Ratio)
system.cpu.dcache.ReadReq.avgMshrMissLatency::cpu.data 59477.967953                       # average ReadReq mshr miss latency ((Tick/Count))
system.cpu.dcache.ReadReq.avgMshrMissLatency::total 59477.967953                       # average ReadReq mshr miss latency ((Tick/Count))
system.cpu.dcache.SoftPFReq.hits::cpu.data        29792                       # number of SoftPFReq hits (Count)
system.cpu.dcache.SoftPFReq.hits::total         29792                       # number of SoftPFReq hits (Count)
system.cpu.dcache.SoftPFReq.misses::cpu.data            5                       # number of SoftPFReq misses (Count)
system.cpu.dcache.SoftPFReq.misses::total            5                       # number of SoftPFReq misses (Count)
system.cpu.dcache.SoftPFReq.accesses::cpu.data        29797                       # number of SoftPFReq accesses(hits+misses) (Count)
system.cpu.dcache.SoftPFReq.accesses::total        29797                       # number of SoftPFReq accesses(hits+misses) (Count)
system.cpu.dcache.SoftPFReq.missRate::cpu.data     0.000168                       # miss rate for SoftPFReq accesses (Ratio)
system.cpu.dcache.SoftPFReq.missRate::total     0.000168                       # miss rate for SoftPFReq accesses (Ratio)
system.cpu.dcache.SoftPFReq.mshrMisses::cpu.data            5                       # number of SoftPFReq MSHR misses (Count)
system.cpu.dcache.SoftPFReq.mshrMisses::total            5                       # number of SoftPFReq MSHR misses (Count)
system.cpu.dcache.SoftPFReq.mshrMissLatency::cpu.data       363500                       # number of SoftPFReq MSHR miss ticks (Tick)
system.cpu.dcache.SoftPFReq.mshrMissLatency::total       363500                       # number of SoftPFReq MSHR miss ticks (Tick)
system.cpu.dcache.SoftPFReq.mshrMissRate::cpu.data     0.000168                       # mshr miss rate for SoftPFReq accesses (Ratio)
system.cpu.dcache.SoftPFReq.mshrMissRate::total     0.000168                       # mshr miss rate for SoftPFReq accesses (Ratio)
system.cpu.dcache.SoftPFReq.avgMshrMissLatency::cpu.data        72700                       # average SoftPFReq mshr miss latency ((Tick/Count))
system.cpu.dcache.SoftPFReq.avgMshrMissLatency::total        72700                       # average SoftPFReq mshr miss latency ((Tick/Count))
system.cpu.dcache.StoreCondReq.hits::cpu.data            4                       # number of StoreCondReq hits (Count)
system.cpu.dcache.StoreCondReq.hits::total            4                       # number of StoreCondReq hits (Count)
system.cpu.dcache.StoreCondReq.accesses::cpu.data            4                       # number of StoreCondReq accesses(hits+misses) (Count)
system.cpu.dcache.StoreCondReq.accesses::total            4                       # number of StoreCondReq accesses(hits+misses) (Count)
system.cpu.dcache.SwapReq.hits::cpu.data           19                       # number of SwapReq hits (Count)
system.cpu.dcache.SwapReq.hits::total              19                       # number of SwapReq hits (Count)
system.cpu.dcache.SwapReq.misses::cpu.data            1                       # number of SwapReq misses (Count)
system.cpu.dcache.SwapReq.misses::total             1                       # number of SwapReq misses (Count)
system.cpu.dcache.SwapReq.missLatency::cpu.data        79000                       # number of SwapReq miss ticks (Tick)
system.cpu.dcache.SwapReq.missLatency::total        79000                       # number of SwapReq miss ticks (Tick)
system.cpu.dcache.SwapReq.accesses::cpu.data           20                       # number of SwapReq accesses(hits+misses) (Count)
system.cpu.dcache.SwapReq.accesses::total           20                       # number of SwapReq accesses(hits+misses) (Count)
system.cpu.dcache.SwapReq.missRate::cpu.data     0.050000                       # miss rate for SwapReq accesses (Ratio)
system.cpu.dcache.SwapReq.missRate::total     0.050000                       # miss rate for SwapReq accesses (Ratio)
system.cpu.dcache.SwapReq.avgMissLatency::cpu.data        79000                       # average SwapReq miss latency ((Tick/Count))
system.cpu.dcache.SwapReq.avgMissLatency::total        79000                       # average SwapReq miss latency ((Tick/Count))
system.cpu.dcache.SwapReq.mshrMisses::cpu.data            1                       # number of SwapReq MSHR misses (Count)
system.cpu.dcache.SwapReq.mshrMisses::total            1                       # number of SwapReq MSHR misses (Count)
system.cpu.dcache.SwapReq.mshrMissLatency::cpu.data        78000                       # number of SwapReq MSHR miss ticks (Tick)
system.cpu.dcache.SwapReq.mshrMissLatency::total        78000                       # number of SwapReq MSHR miss ticks (Tick)
system.cpu.dcache.SwapReq.mshrMissRate::cpu.data     0.050000                       # mshr miss rate for SwapReq accesses (Ratio)
system.cpu.dcache.SwapReq.mshrMissRate::total     0.050000                       # mshr miss rate for SwapReq accesses (Ratio)
system.cpu.dcache.SwapReq.avgMshrMissLatency::cpu.data        78000                       # average SwapReq mshr miss latency ((Tick/Count))
system.cpu.dcache.SwapReq.avgMshrMissLatency::total        78000                       # average SwapReq mshr miss latency ((Tick/Count))
system.cpu.dcache.WriteLineReq.misses::cpu.data         1540                       # number of WriteLineReq misses (Count)
system.cpu.dcache.WriteLineReq.misses::total         1540                       # number of WriteLineReq misses (Count)
system.cpu.dcache.WriteLineReq.missLatency::cpu.data     16954251                       # number of WriteLineReq miss ticks (Tick)
system.cpu.dcache.WriteLineReq.missLatency::total     16954251                       # number of WriteLineReq miss ticks (Tick)
system.cpu.dcache.WriteLineReq.accesses::cpu.data         1540                       # number of WriteLineReq accesses(hits+misses) (Count)
system.cpu.dcache.WriteLineReq.accesses::total         1540                       # number of WriteLineReq accesses(hits+misses) (Count)
system.cpu.dcache.WriteLineReq.missRate::cpu.data            1                       # miss rate for WriteLineReq accesses (Ratio)
system.cpu.dcache.WriteLineReq.missRate::total            1                       # miss rate for WriteLineReq accesses (Ratio)
system.cpu.dcache.WriteLineReq.avgMissLatency::cpu.data 11009.253896                       # average WriteLineReq miss latency ((Tick/Count))
system.cpu.dcache.WriteLineReq.avgMissLatency::total 11009.253896                       # average WriteLineReq miss latency ((Tick/Count))
system.cpu.dcache.WriteLineReq.mshrMisses::cpu.data         1540                       # number of WriteLineReq MSHR misses (Count)
system.cpu.dcache.WriteLineReq.mshrMisses::total         1540                       # number of WriteLineReq MSHR misses (Count)
system.cpu.dcache.WriteLineReq.mshrMissLatency::cpu.data     15414251                       # number of WriteLineReq MSHR miss ticks (Tick)
system.cpu.dcache.WriteLineReq.mshrMissLatency::total     15414251                       # number of WriteLineReq MSHR miss ticks (Tick)
system.cpu.dcache.WriteLineReq.mshrMissRate::cpu.data            1                       # mshr miss rate for WriteLineReq accesses (Ratio)
system.cpu.dcache.WriteLineReq.mshrMissRate::total            1                       # mshr miss rate for WriteLineReq accesses (Ratio)
system.cpu.dcache.WriteLineReq.avgMshrMissLatency::cpu.data 10009.253896                       # average WriteLineReq mshr miss latency ((Tick/Count))
system.cpu.dcache.WriteLineReq.avgMshrMissLatency::total 10009.253896                       # average WriteLineReq mshr miss latency ((Tick/Count))
system.cpu.dcache.WriteReq.hits::cpu.data      5291988                       # number of WriteReq hits (Count)
system.cpu.dcache.WriteReq.hits::total        5291988                       # number of WriteReq hits (Count)
system.cpu.dcache.WriteReq.misses::cpu.data         1807                       # number of WriteReq misses (Count)
system.cpu.dcache.WriteReq.misses::total         1807                       # number of WriteReq misses (Count)
system.cpu.dcache.WriteReq.missLatency::cpu.data    103372471                       # number of WriteReq miss ticks (Tick)
system.cpu.dcache.WriteReq.missLatency::total    103372471                       # number of WriteReq miss ticks (Tick)
system.cpu.dcache.WriteReq.accesses::cpu.data      5293795                       # number of WriteReq accesses(hits+misses) (Count)
system.cpu.dcache.WriteReq.accesses::total      5293795                       # number of WriteReq accesses(hits+misses) (Count)
system.cpu.dcache.WriteReq.missRate::cpu.data     0.000341                       # miss rate for WriteReq accesses (Ratio)
system.cpu.dcache.WriteReq.missRate::total     0.000341                       # miss rate for WriteReq accesses (Ratio)
system.cpu.dcache.WriteReq.avgMissLatency::cpu.data 57206.680133                       # average WriteReq miss latency ((Tick/Count))
system.cpu.dcache.WriteReq.avgMissLatency::total 57206.680133                       # average WriteReq miss latency ((Tick/Count))
system.cpu.dcache.WriteReq.mshrHits::cpu.data          515                       # number of WriteReq MSHR hits (Count)
system.cpu.dcache.WriteReq.mshrHits::total          515                       # number of WriteReq MSHR hits (Count)
system.cpu.dcache.WriteReq.mshrMisses::cpu.data         1292                       # number of WriteReq MSHR misses (Count)
system.cpu.dcache.WriteReq.mshrMisses::total         1292                       # number of WriteReq MSHR misses (Count)
system.cpu.dcache.WriteReq.mshrMissLatency::cpu.data     77113496                       # number of WriteReq MSHR miss ticks (Tick)
system.cpu.dcache.WriteReq.mshrMissLatency::total     77113496                       # number of WriteReq MSHR miss ticks (Tick)
system.cpu.dcache.WriteReq.mshrMissRate::cpu.data     0.000244                       # mshr miss rate for WriteReq accesses (Ratio)
system.cpu.dcache.WriteReq.mshrMissRate::total     0.000244                       # mshr miss rate for WriteReq accesses (Ratio)
system.cpu.dcache.WriteReq.avgMshrMissLatency::cpu.data 59685.368421                       # average WriteReq mshr miss latency ((Tick/Count))
system.cpu.dcache.WriteReq.avgMshrMissLatency::total 59685.368421                       # average WriteReq mshr miss latency ((Tick/Count))
system.cpu.dcache.power_state.pwrStateResidencyTicks::UNDEFINED  10978191500                       # Cumulative time (in ticks) in various power states (Tick)
system.cpu.dcache.tags.tagsInUse          2036.739861                       # Average ticks per tags in use ((Tick/Count))
system.cpu.dcache.tags.totalRefs             14031971                       # Total number of references to valid blocks. (Count)
system.cpu.dcache.tags.sampledRefs               8330                       # Sample count of references to valid blocks. (Count)
system.cpu.dcache.tags.avgRefs            1684.510324                       # Average number of references to valid blocks. ((Count/Count))
system.cpu.dcache.tags.warmupTick              145000                       # The tick when the warmup percentage was hit. (Tick)
system.cpu.dcache.tags.occupancies::cpu.data  2036.739861                       # Average occupied blocks per tick, per requestor ((Count/Tick))
system.cpu.dcache.tags.avgOccs::cpu.data     0.994502                       # Average percentage of cache occupancy ((Ratio/Tick))
system.cpu.dcache.tags.avgOccs::total        0.994502                       # Average percentage of cache occupancy ((Ratio/Tick))
system.cpu.dcache.tags.occupanciesTaskId::1024         2048                       # Occupied blocks per task id (Count)
system.cpu.dcache.tags.ageTaskId_1024::0           73                       # Occupied blocks per task id, per block age (Count)
system.cpu.dcache.tags.ageTaskId_1024::1          508                       # Occupied blocks per task id, per block age (Count)
system.cpu.dcache.tags.ageTaskId_1024::2         1056                       # Occupied blocks per task id, per block age (Count)
system.cpu.dcache.tags.ageTaskId_1024::3          395                       # Occupied blocks per task id, per block age (Count)
system.cpu.dcache.tags.ageTaskId_1024::4           16                       # Occupied blocks per task id, per block age (Count)
system.cpu.dcache.tags.ratioOccsTaskId::1024            1                       # Ratio of occupied blocks and all blocks, per task id (Ratio)
system.cpu.dcache.tags.tagAccesses           28083708                       # Number of tag accesses (Count)
system.cpu.dcache.tags.dataAccesses          28083708                       # Number of data accesses (Count)
system.cpu.dcache.tags.power_state.pwrStateResidencyTicks::UNDEFINED  10978191500                       # Cumulative time (in ticks) in various power states (Tick)
system.cpu.decode.idleCycles                  5481462                       # Number of cycles decode is idle (Cycle)
system.cpu.decode.blockedCycles               6577892                       # Number of cycles decode is blocked (Cycle)
system.cpu.decode.runCycles                   7518150                       # Number of cycles decode is running (Cycle)
system.cpu.decode.unblockCycles               1822753                       # Number of cycles decode is unblocking (Cycle)
system.cpu.decode.squashCycles                  97669                       # Number of cycles decode is squashing (Cycle)
system.cpu.decode.branchResolved              4157257                       # Number of times decode resolved a branch (Count)
system.cpu.decode.branchMispred                 12992                       # Number of times decode detected a branch misprediction (Count)
system.cpu.decode.decodedInsts               54581540                       # Number of instructions handled by decode (Count)
system.cpu.decode.squashedInsts                 30175                       # Number of squashed instructions handled by decode (Count)
system.cpu.fetch.icacheStallCycles            7199885                       # Number of cycles fetch is stalled on an Icache miss (Cycle)
system.cpu.fetch.insts                       50740222                       # Number of instructions fetch has processed (Count)
system.cpu.fetch.branches                     7499742                       # Number of branches that fetch encountered (Count)
system.cpu.fetch.predictedBranches            4858910                       # Number of branches that fetch has predicted taken (Count)
system.cpu.fetch.cycles                      14187344                       # Number of cycles fetch has run and was not squashing or blocked (Cycle)
system.cpu.fetch.squashCycles                  221280                       # Number of cycles fetch has spent squashing (Cycle)
system.cpu.fetch.miscStallCycles                   57                       # Number of cycles fetch has spent waiting on interrupts, or bad addresses, or out of MSHRs (Cycle)
system.cpu.fetch.cacheLines                   6412230                       # Number of cache lines fetched (Count)
system.cpu.fetch.icacheSquashes                 47782                       # Number of outstanding Icache misses that were squashed (Count)
system.cpu.fetch.nisnDist::samples           21497926                       # Number of instructions fetched each cycle (Total) (Count)
system.cpu.fetch.nisnDist::mean              2.590838                       # Number of instructions fetched each cycle (Total) (Count)
system.cpu.fetch.nisnDist::stdev             3.143501                       # Number of instructions fetched each cycle (Total) (Count)
system.cpu.fetch.nisnDist::underflows               0      0.00%      0.00% # Number of instructions fetched each cycle (Total) (Count)
system.cpu.fetch.nisnDist::0                 10541106     49.03%     49.03% # Number of instructions fetched each cycle (Total) (Count)
system.cpu.fetch.nisnDist::1                  1119469      5.21%     54.24% # Number of instructions fetched each cycle (Total) (Count)
system.cpu.fetch.nisnDist::2                  1492603      6.94%     61.18% # Number of instructions fetched each cycle (Total) (Count)
system.cpu.fetch.nisnDist::3                  1089885      5.07%     66.25% # Number of instructions fetched each cycle (Total) (Count)
system.cpu.fetch.nisnDist::4                  1174231      5.46%     71.72% # Number of instructions fetched each cycle (Total) (Count)
system.cpu.fetch.nisnDist::5                   926140      4.31%     76.02% # Number of instructions fetched each cycle (Total) (Count)
system.cpu.fetch.nisnDist::6                   806784      3.75%     79.78% # Number of instructions fetched each cycle (Total) (Count)
system.cpu.fetch.nisnDist::7                   626678      2.92%     82.69% # Number of instructions fetched each cycle (Total) (Count)
system.cpu.fetch.nisnDist::8                  3721030     17.31%    100.00% # Number of instructions fetched each cycle (Total) (Count)
system.cpu.fetch.nisnDist::overflows                0      0.00%    100.00% # Number of instructions fetched each cycle (Total) (Count)
system.cpu.fetch.nisnDist::min_value                0                       # Number of instructions fetched each cycle (Total) (Count)
system.cpu.fetch.nisnDist::max_value                8                       # Number of instructions fetched each cycle (Total) (Count)
system.cpu.fetch.nisnDist::total             21497926                       # Number of instructions fetched each cycle (Total) (Count)
system.cpu.fetch.branchRate                  0.341575                       # Number of branch fetches per cycle (Ratio)
system.cpu.fetch.rate                        2.310955                       # Number of inst fetches per cycle ((Count/Cycle))
system.cpu.icache.demandHits::cpu.inst        6386339                       # number of demand (read+write) hits (Count)
system.cpu.icache.demandHits::total           6386339                       # number of demand (read+write) hits (Count)
system.cpu.icache.overallHits::cpu.inst       6386339                       # number of overall hits (Count)
system.cpu.icache.overallHits::total          6386339                       # number of overall hits (Count)
system.cpu.icache.demandMisses::cpu.inst        25890                       # number of demand (read+write) misses (Count)
system.cpu.icache.demandMisses::total           25890                       # number of demand (read+write) misses (Count)
system.cpu.icache.overallMisses::cpu.inst        25890                       # number of overall misses (Count)
system.cpu.icache.overallMisses::total          25890                       # number of overall misses (Count)
system.cpu.icache.demandMissLatency::cpu.inst    663474000                       # number of demand (read+write) miss ticks (Tick)
system.cpu.icache.demandMissLatency::total    663474000                       # number of demand (read+write) miss ticks (Tick)
system.cpu.icache.overallMissLatency::cpu.inst    663474000                       # number of overall miss ticks (Tick)
system.cpu.icache.overallMissLatency::total    663474000                       # number of overall miss ticks (Tick)
system.cpu.icache.demandAccesses::cpu.inst      6412229                       # number of demand (read+write) accesses (Count)
system.cpu.icache.demandAccesses::total       6412229                       # number of demand (read+write) accesses (Count)
system.cpu.icache.overallAccesses::cpu.inst      6412229                       # number of overall (read+write) accesses (Count)
system.cpu.icache.overallAccesses::total      6412229                       # number of overall (read+write) accesses (Count)
system.cpu.icache.demandMissRate::cpu.inst     0.004038                       # miss rate for demand accesses (Ratio)
system.cpu.icache.demandMissRate::total      0.004038                       # miss rate for demand accesses (Ratio)
system.cpu.icache.overallMissRate::cpu.inst     0.004038                       # miss rate for overall accesses (Ratio)
system.cpu.icache.overallMissRate::total     0.004038                       # miss rate for overall accesses (Ratio)
system.cpu.icache.demandAvgMissLatency::cpu.inst 25626.651217                       # average overall miss latency ((Cycle/Count))
system.cpu.icache.demandAvgMissLatency::total 25626.651217                       # average overall miss latency ((Cycle/Count))
system.cpu.icache.overallAvgMissLatency::cpu.inst 25626.651217                       # average overall miss latency ((Cycle/Count))
system.cpu.icache.overallAvgMissLatency::total 25626.651217                       # average overall miss latency ((Cycle/Count))
system.cpu.icache.blockedCycles::no_mshrs          444                       # number of cycles access was blocked (Cycle)
system.cpu.icache.blockedCycles::no_targets            0                       # number of cycles access was blocked (Cycle)
system.cpu.icache.blockedCauses::no_mshrs            7                       # number of times access was blocked (Count)
system.cpu.icache.blockedCauses::no_targets            0                       # number of times access was blocked (Count)
system.cpu.icache.avgBlocked::no_mshrs      63.428571                       # average number of cycles each access was blocked ((Cycle/Count))
system.cpu.icache.avgBlocked::no_targets          nan                       # average number of cycles each access was blocked ((Cycle/Count))
system.cpu.icache.writebacks::writebacks        25030                       # number of writebacks (Count)
system.cpu.icache.writebacks::total             25030                       # number of writebacks (Count)
system.cpu.icache.demandMshrHits::cpu.inst          383                       # number of demand (read+write) MSHR hits (Count)
system.cpu.icache.demandMshrHits::total           383                       # number of demand (read+write) MSHR hits (Count)
system.cpu.icache.overallMshrHits::cpu.inst          383                       # number of overall MSHR hits (Count)
system.cpu.icache.overallMshrHits::total          383                       # number of overall MSHR hits (Count)
system.cpu.icache.demandMshrMisses::cpu.inst        25507                       # number of demand (read+write) MSHR misses (Count)
system.cpu.icache.demandMshrMisses::total        25507                       # number of demand (read+write) MSHR misses (Count)
system.cpu.icache.overallMshrMisses::cpu.inst        25507                       # number of overall MSHR misses (Count)
system.cpu.icache.overallMshrMisses::total        25507                       # number of overall MSHR misses (Count)
system.cpu.icache.demandMshrMissLatency::cpu.inst    623241000                       # number of demand (read+write) MSHR miss ticks (Tick)
system.cpu.icache.demandMshrMissLatency::total    623241000                       # number of demand (read+write) MSHR miss ticks (Tick)
system.cpu.icache.overallMshrMissLatency::cpu.inst    623241000                       # number of overall MSHR miss ticks (Tick)
system.cpu.icache.overallMshrMissLatency::total    623241000                       # number of overall MSHR miss ticks (Tick)
system.cpu.icache.demandMshrMissRate::cpu.inst     0.003978                       # mshr miss ratio for demand accesses (Ratio)
system.cpu.icache.demandMshrMissRate::total     0.003978                       # mshr miss ratio for demand accesses (Ratio)
system.cpu.icache.overallMshrMissRate::cpu.inst     0.003978                       # mshr miss ratio for overall accesses (Ratio)
system.cpu.icache.overallMshrMissRate::total     0.003978                       # mshr miss ratio for overall accesses (Ratio)
system.cpu.icache.demandAvgMshrMissLatency::cpu.inst 24434.116125                       # average overall mshr miss latency ((Cycle/Count))
system.cpu.icache.demandAvgMshrMissLatency::total 24434.116125                       # average overall mshr miss latency ((Cycle/Count))
system.cpu.icache.overallAvgMshrMissLatency::cpu.inst 24434.116125                       # average overall mshr miss latency ((Cycle/Count))
system.cpu.icache.overallAvgMshrMissLatency::total 24434.116125                       # average overall mshr miss latency ((Cycle/Count))
system.cpu.icache.replacements                  25030                       # number of replacements (Count)
system.cpu.icache.ReadReq.hits::cpu.inst      6386339                       # number of ReadReq hits (Count)
system.cpu.icache.ReadReq.hits::total         6386339                       # number of ReadReq hits (Count)
system.cpu.icache.ReadReq.misses::cpu.inst        25890                       # number of ReadReq misses (Count)
system.cpu.icache.ReadReq.misses::total         25890                       # number of ReadReq misses (Count)
system.cpu.icache.ReadReq.missLatency::cpu.inst    663474000                       # number of ReadReq miss ticks (Tick)
system.cpu.icache.ReadReq.missLatency::total    663474000                       # number of ReadReq miss ticks (Tick)
system.cpu.icache.ReadReq.accesses::cpu.inst      6412229                       # number of ReadReq accesses(hits+misses) (Count)
system.cpu.icache.ReadReq.accesses::total      6412229                       # number of ReadReq accesses(hits+misses) (Count)
system.cpu.icache.ReadReq.missRate::cpu.inst     0.004038                       # miss rate for ReadReq accesses (Ratio)
system.cpu.icache.ReadReq.missRate::total     0.004038                       # miss rate for ReadReq accesses (Ratio)
system.cpu.icache.ReadReq.avgMissLatency::cpu.inst 25626.651217                       # average ReadReq miss latency ((Tick/Count))
system.cpu.icache.ReadReq.avgMissLatency::total 25626.651217                       # average ReadReq miss latency ((Tick/Count))
system.cpu.icache.ReadReq.mshrHits::cpu.inst          383                       # number of ReadReq MSHR hits (Count)
system.cpu.icache.ReadReq.mshrHits::total          383                       # number of ReadReq MSHR hits (Count)
system.cpu.icache.ReadReq.mshrMisses::cpu.inst        25507                       # number of ReadReq MSHR misses (Count)
system.cpu.icache.ReadReq.mshrMisses::total        25507                       # number of ReadReq MSHR misses (Count)
system.cpu.icache.ReadReq.mshrMissLatency::cpu.inst    623241000                       # number of ReadReq MSHR miss ticks (Tick)
system.cpu.icache.ReadReq.mshrMissLatency::total    623241000                       # number of ReadReq MSHR miss ticks (Tick)
system.cpu.icache.ReadReq.mshrMissRate::cpu.inst     0.003978                       # mshr miss rate for ReadReq accesses (Ratio)
system.cpu.icache.ReadReq.mshrMissRate::total     0.003978                       # mshr miss rate for ReadReq accesses (Ratio)
system.cpu.icache.ReadReq.avgMshrMissLatency::cpu.inst 24434.116125                       # average ReadReq mshr miss latency ((Tick/Count))
system.cpu.icache.ReadReq.avgMshrMissLatency::total 24434.116125                       # average ReadReq mshr miss latency ((Tick/Count))
system.cpu.icache.power_state.pwrStateResidencyTicks::UNDEFINED  10978191500                       # Cumulative time (in ticks) in various power states (Tick)
system.cpu.icache.tags.tagsInUse           406.573280                       # Average ticks per tags in use ((Tick/Count))
system.cpu.icache.tags.totalRefs              6411845                       # Total number of references to valid blocks. (Count)
system.cpu.icache.tags.sampledRefs              25506                       # Sample count of references to valid blocks. (Count)
system.cpu.icache.tags.avgRefs             251.385752                       # Average number of references to valid blocks. ((Count/Count))
system.cpu.icache.tags.warmupTick               77000                       # The tick when the warmup percentage was hit. (Tick)
system.cpu.icache.tags.occupancies::cpu.inst   406.573280                       # Average occupied blocks per tick, per requestor ((Count/Tick))
system.cpu.icache.tags.avgOccs::cpu.inst     0.794088                       # Average percentage of cache occupancy ((Ratio/Tick))
system.cpu.icache.tags.avgOccs::total        0.794088                       # Average percentage of cache occupancy ((Ratio/Tick))
system.cpu.icache.tags.occupanciesTaskId::1024          476                       # Occupied blocks per task id (Count)
system.cpu.icache.tags.ageTaskId_1024::0          127                       # Occupied blocks per task id, per block age (Count)
system.cpu.icache.tags.ageTaskId_1024::1           28                       # Occupied blocks per task id, per block age (Count)
system.cpu.icache.tags.ageTaskId_1024::2            1                       # Occupied blocks per task id, per block age (Count)
system.cpu.icache.tags.ageTaskId_1024::3          177                       # Occupied blocks per task id, per block age (Count)
system.cpu.icache.tags.ageTaskId_1024::4          143                       # Occupied blocks per task id, per block age (Count)
system.cpu.icache.tags.ratioOccsTaskId::1024     0.929688                       # Ratio of occupied blocks and all blocks, per task id (Ratio)
system.cpu.icache.tags.tagAccesses           12849964                       # Number of tag accesses (Count)
system.cpu.icache.tags.dataAccesses          12849964                       # Number of data accesses (Count)
system.cpu.icache.tags.power_state.pwrStateResidencyTicks::UNDEFINED  10978191500                       # Cumulative time (in ticks) in various power states (Tick)
system.cpu.iew.idleCycles                           0                       # Number of cycles IEW is idle (Cycle)
system.cpu.iew.squashCycles                     97669                       # Number of cycles IEW is squashing (Cycle)
system.cpu.iew.blockCycles                     683317                       # Number of cycles IEW is blocking (Cycle)
system.cpu.iew.unblockCycles                   127470                       # Number of cycles IEW is unblocking (Cycle)
system.cpu.iew.dispatchedInsts               53716733                       # Number of instructions dispatched to IQ (Count)
system.cpu.iew.dispSquashedInsts                14333                       # Number of squashed instructions skipped by dispatch (Count)
system.cpu.iew.dispLoadInsts                 11478033                       # Number of dispatched load instructions (Count)
system.cpu.iew.dispStoreInsts                 5622072                       # Number of dispatched store instructions (Count)
system.cpu.iew.dispNonSpecInsts                  4202                       # Number of dispatched non-speculative instructions (Count)
system.cpu.iew.iqFullEvents                     52229                       # Number of times the IQ has become full, causing a stall (Count)
system.cpu.iew.lsqFullEvents                    61890                       # Number of times the LSQ has become full, causing a stall (Count)
system.cpu.iew.memOrderViolationEvents            723                       # Number of memory order violations (Count)
system.cpu.iew.predictedTakenIncorrect          38453                       # Number of branches that were predicted taken incorrectly (Count)
system.cpu.iew.predictedNotTakenIncorrect        55770                       # Number of branches that were predicted not taken incorrectly (Count)
system.cpu.iew.branchMispredicts                94223                       # Number of branch mispredicts detected at execute (Count)
[...]
system.mem_ctrls.dram.bwRead::cpu.inst      148693344                       # Total read bandwidth from this memory ((Byte/Second))
system.mem_ctrls.dram.bwRead::cpu.data       39566444                       # Total read bandwidth from this memory ((Byte/Second))
system.mem_ctrls.dram.bwRead::total         188259788                       # Total read bandwidth from this memory ((Byte/Second))
system.mem_ctrls.dram.bwInstRead::cpu.inst    148693344                       # Instruction read bandwidth from this memory ((Byte/Second))
system.mem_ctrls.dram.bwInstRead::total     148693344                       # Instruction read bandwidth from this memory ((Byte/Second))
system.mem_ctrls.dram.bwWrite::writebacks     32454162                       # Write bandwidth from this memory ((Byte/Second))
system.mem_ctrls.dram.bwWrite::total         32454162                       # Write bandwidth from this memory ((Byte/Second))
system.mem_ctrls.dram.bwTotal::writebacks     32454162                       # Total bandwidth to/from this memory ((Byte/Second))
system.mem_ctrls.dram.bwTotal::cpu.inst     148693344                       # Total bandwidth to/from this memory ((Byte/Second))
system.mem_ctrls.dram.bwTotal::cpu.data      39566444                       # Total bandwidth to/from this memory ((Byte/Second))
system.mem_ctrls.dram.bwTotal::total        220713949                       # Total bandwidth to/from this memory ((Byte/Second))
system.mem_ctrls.dram.readBursts                 7689                       # Number of DRAM read bursts (Count)
system.mem_ctrls.dram.writeBursts                6012                       # Number of DRAM write bursts (Count)
system.mem_ctrls.dram.perBankRdBursts::0          613                       # Per bank write bursts (Count)
system.mem_ctrls.dram.perBankRdBursts::1          592                       # Per bank write bursts (Count)
system.mem_ctrls.dram.perBankRdBursts::2          446                       # Per bank write bursts (Count)
system.mem_ctrls.dram.perBankRdBursts::3          258                       # Per bank write bursts (Count)
system.mem_ctrls.dram.perBankRdBursts::4          382                       # Per bank write bursts (Count)
system.mem_ctrls.dram.perBankRdBursts::5          492                       # Per bank write bursts (Count)
system.mem_ctrls.dram.perBankRdBursts::6          451                       # Per bank write bursts (Count)
system.mem_ctrls.dram.perBankRdBursts::7          425                       # Per bank write bursts (Count)
system.mem_ctrls.dram.perBankRdBursts::8          518                       # Per bank write bursts (Count)
system.mem_ctrls.dram.perBankRdBursts::9          437                       # Per bank write bursts (Count)
system.mem_ctrls.dram.perBankRdBursts::10          420                       # Per bank write bursts (Count)
system.mem_ctrls.dram.perBankRdBursts::11          482                       # Per bank write bursts (Count)
system.mem_ctrls.dram.perBankRdBursts::12          459                       # Per bank write bursts (Count)
system.mem_ctrls.dram.perBankRdBursts::13          561                       # Per bank write bursts (Count)
system.mem_ctrls.dram.perBankRdBursts::14          518                       # Per bank write bursts (Count)
system.mem_ctrls.dram.perBankRdBursts::15          635                       # Per bank write bursts (Count)
system.mem_ctrls.dram.perBankWrBursts::0          349                       # Per bank write bursts (Count)
system.mem_ctrls.dram.perBankWrBursts::1          374                       # Per bank write bursts (Count)
system.mem_ctrls.dram.perBankWrBursts::2          308                       # Per bank write bursts (Count)
system.mem_ctrls.dram.perBankWrBursts::3          215                       # Per bank write bursts (Count)
system.mem_ctrls.dram.perBankWrBursts::4          287                       # Per bank write bursts (Count)
system.mem_ctrls.dram.perBankWrBursts::5          451                       # Per bank write bursts (Count)
system.mem_ctrls.dram.perBankWrBursts::6          392                       # Per bank write bursts (Count)
system.mem_ctrls.dram.perBankWrBursts::7          433                       # Per bank write bursts (Count)
system.mem_ctrls.dram.perBankWrBursts::8          471                       # Per bank write bursts (Count)
system.mem_ctrls.dram.perBankWrBursts::9          435                       # Per bank write bursts (Count)
system.mem_ctrls.dram.perBankWrBursts::10          375                       # Per bank write bursts (Count)
system.mem_ctrls.dram.perBankWrBursts::11          323                       # Per bank write bursts (Count)
system.mem_ctrls.dram.perBankWrBursts::12          377                       # Per bank write bursts (Count)
system.mem_ctrls.dram.perBankWrBursts::13          393                       # Per bank write bursts (Count)
system.mem_ctrls.dram.perBankWrBursts::14          380                       # Per bank write bursts (Count)
system.mem_ctrls.dram.perBankWrBursts::15          449                       # Per bank write bursts (Count)
system.mem_ctrls.dram.totQLat                75342500                       # Total ticks spent queuing (Tick)
system.mem_ctrls.dram.totBusLat              38445000                       # Total ticks spent in databus transfers (Tick)
system.mem_ctrls.dram.totMemAccLat          219511250                       # Total ticks spent from burst creation until serviced by the DRAM (Tick)
system.mem_ctrls.dram.avgQLat                 9798.74                       # Average queueing delay per DRAM burst ((Tick/Count))
system.mem_ctrls.dram.avgBusLat               5000.00                       # Average bus latency per DRAM burst ((Tick/Count))
system.mem_ctrls.dram.avgMemAccLat           28548.74                       # Average memory access latency per DRAM burst ((Tick/Count))
system.mem_ctrls.dram.readRowHits                6189                       # Number of row buffer hits during reads (Count)
system.mem_ctrls.dram.writeRowHits               5113                       # Number of row buffer hits during writes (Count)
system.mem_ctrls.dram.readRowHitRate            80.49                       # Row buffer hit rate for reads (Ratio)
system.mem_ctrls.dram.writeRowHitRate           85.05                       # Row buffer hit rate for writes (Ratio)
system.mem_ctrls.dram.bytesPerActivate::samples         2388                       # Bytes accessed per row activation (Byte)
system.mem_ctrls.dram.bytesPerActivate::mean   366.231156                       # Bytes accessed per row activation (Byte)
system.mem_ctrls.dram.bytesPerActivate::gmean   259.761071                       # Bytes accessed per row activation (Byte)
system.mem_ctrls.dram.bytesPerActivate::stdev   284.149621                       # Bytes accessed per row activation (Byte)
system.mem_ctrls.dram.bytesPerActivate::0-127          421     17.63%     17.63% # Bytes accessed per row activation (Byte)
system.mem_ctrls.dram.bytesPerActivate::128-255          592     24.79%     42.42% # Bytes accessed per row activation (Byte)
system.mem_ctrls.dram.bytesPerActivate::256-383          370     15.49%     57.91% # Bytes accessed per row activation (Byte)
system.mem_ctrls.dram.bytesPerActivate::384-511          212      8.88%     66.79% # Bytes accessed per row activation (Byte)
system.mem_ctrls.dram.bytesPerActivate::512-639          433     18.13%     84.92% # Bytes accessed per row activation (Byte)
system.mem_ctrls.dram.bytesPerActivate::640-767           78      3.27%     88.19% # Bytes accessed per row activation (Byte)
system.mem_ctrls.dram.bytesPerActivate::768-895           62      2.60%     90.79% # Bytes accessed per row activation (Byte)
system.mem_ctrls.dram.bytesPerActivate::896-1023           48      2.01%     92.80% # Bytes accessed per row activation (Byte)
system.mem_ctrls.dram.bytesPerActivate::1024-1151          172      7.20%    100.00% # Bytes accessed per row activation (Byte)
system.mem_ctrls.dram.bytesPerActivate::total         2388                       # Bytes accessed per row activation (Byte)
system.mem_ctrls.dram.bytesRead                492096                       # Total bytes read (Byte)
system.mem_ctrls.dram.bytesWritten             384768                       # Total bytes written (Byte)
system.mem_ctrls.dram.avgRdBW               44.824869                       # Average DRAM read bandwidth in MiBytes/s ((Byte/Second))
system.mem_ctrls.dram.avgWrBW               35.048396                       # Average DRAM write bandwidth in MiBytes/s ((Byte/Second))
system.mem_ctrls.dram.peakBW                 12800.00                       # Theoretical peak bandwidth in MiByte/s ((Byte/Second))
system.mem_ctrls.dram.busUtil                    0.62                       # Data bus utilization in percentage (Ratio)
system.mem_ctrls.dram.busUtilRead                0.35                       # Data bus utilization in percentage for reads (Ratio)
system.mem_ctrls.dram.busUtilWrite               0.27                       # Data bus utilization in percentage for writes (Ratio)
system.mem_ctrls.dram.pageHitRate               82.49                       # Row buffer hit rate, read and write combined (Ratio)
system.mem_ctrls.dram.power_state.pwrStateResidencyTicks::UNDEFINED  10978191500                       # Cumulative time (in ticks) in various power states (Tick)
system.mem_ctrls.dram.rank0.actEnergy         8153880                       # Energy for activate commands per rank (pJ) (Joule)
system.mem_ctrls.dram.rank0.preEnergy         4314915                       # Energy for precharge commands per rank (pJ) (Joule)
system.mem_ctrls.dram.rank0.readEnergy       26125260                       # Energy for read commands per rank (pJ) (Joule)
system.mem_ctrls.dram.rank0.writeEnergy      14662980                       # Energy for write commands per rank (pJ) (Joule)
system.mem_ctrls.dram.rank0.refreshEnergy 866027760.000000                       # Energy for refresh commands per rank (pJ) (Joule)
system.mem_ctrls.dram.rank0.actBackEnergy   1498455330                       # Energy for active background per rank (pJ) (Joule)
system.mem_ctrls.dram.rank0.preBackEnergy   2953768800                       # Energy for precharge background per rank (pJ) (Joule)
system.mem_ctrls.dram.rank0.actPowerDownEnergy            0                       # Energy for active power-down per rank (pJ) (Joule)
system.mem_ctrls.dram.rank0.prePowerDownEnergy            0                       # Energy for precharge power-down per rank (pJ) (Joule)
system.mem_ctrls.dram.rank0.selfRefreshEnergy            0                       # Energy for self refresh per rank (pJ) (Joule)
system.mem_ctrls.dram.rank0.totalEnergy    5371508925                       # Total energy per rank (pJ) (Joule)
system.mem_ctrls.dram.rank0.averagePower   489.289053                       # Core power per rank (mW) (Watt)
system.mem_ctrls.dram.rank0.totalIdleTime            0                       # Total Idle time Per DRAM Rank (Tick)
system.mem_ctrls.dram.rank0.pwrStateTime::IDLE   7665367000                       # Time in different power states (Tick)
system.mem_ctrls.dram.rank0.pwrStateTime::REF    366340000                       # Time in different power states (Tick)
system.mem_ctrls.dram.rank0.pwrStateTime::SREF            0                       # Time in different power states (Tick)
system.mem_ctrls.dram.rank0.pwrStateTime::PRE_PDN            0                       # Time in different power states (Tick)
system.mem_ctrls.dram.rank0.pwrStateTime::ACT   2946484500                       # Time in different power states (Tick)
system.mem_ctrls.dram.rank0.pwrStateTime::ACT_PDN            0                       # Time in different power states (Tick)
system.mem_ctrls.dram.rank1.actEnergy         8974980                       # Energy for activate commands per rank (pJ) (Joule)
system.mem_ctrls.dram.rank1.preEnergy         4747545                       # Energy for precharge commands per rank (pJ) (Joule)
system.mem_ctrls.dram.rank1.readEnergy       28774200                       # Energy for read commands per rank (pJ) (Joule)
system.mem_ctrls.dram.rank1.writeEnergy      16719660                       # Energy for write commands per rank (pJ) (Joule)
system.mem_ctrls.dram.rank1.refreshEnergy 866027760.000000                       # Energy for refresh commands per rank (pJ) (Joule)
system.mem_ctrls.dram.rank1.actBackEnergy   1481618670                       # Energy for active background per rank (pJ) (Joule)
system.mem_ctrls.dram.rank1.preBackEnergy   2967947040                       # Energy for precharge background per rank (pJ) (Joule)
system.mem_ctrls.dram.rank1.actPowerDownEnergy            0                       # Energy for active power-down per rank (pJ) (Joule)
system.mem_ctrls.dram.rank1.prePowerDownEnergy            0                       # Energy for precharge power-down per rank (pJ) (Joule)
system.mem_ctrls.dram.rank1.selfRefreshEnergy            0                       # Energy for self refresh per rank (pJ) (Joule)
system.mem_ctrls.dram.rank1.totalEnergy    5374809855                       # Total energy per rank (pJ) (Joule)
system.mem_ctrls.dram.rank1.averagePower   489.589734                       # Core power per rank (mW) (Watt)
system.mem_ctrls.dram.rank1.totalIdleTime            0                       # Total Idle time Per DRAM Rank (Tick)
system.mem_ctrls.dram.rank1.pwrStateTime::IDLE   7701985250                       # Time in different power states (Tick)
system.mem_ctrls.dram.rank1.pwrStateTime::REF    366340000                       # Time in different power states (Tick)
system.mem_ctrls.dram.rank1.pwrStateTime::SREF            0                       # Time in different power states (Tick)
system.mem_ctrls.dram.rank1.pwrStateTime::PRE_PDN            0                       # Time in different power states (Tick)
system.mem_ctrls.dram.rank1.pwrStateTime::ACT   2909866250                       # Time in different power states (Tick)
system.mem_ctrls.dram.rank1.pwrStateTime::ACT_PDN            0                       # Time in different power states (Tick)
system.mem_ctrls.power_state.pwrStateResidencyTicks::UNDEFINED  10978191500                       # Cumulative time (in ticks) in various power states (Tick)
system.membus.transDist::ReadResp               31003                       # Transaction distribution (Count)
system.membus.transDist::WritebackDirty          5567                       # Transaction distribution (Count)
system.membus.transDist::WritebackClean         25030                       # Transaction distribution (Count)
system.membus.transDist::CleanEvict               715                       # Transaction distribution (Count)
system.membus.transDist::ReadExReq               1290                       # Transaction distribution (Count)
system.membus.transDist::ReadExResp              1290                       # Transaction distribution (Count)
system.membus.transDist::ReadCleanReq           25507                       # Transaction distribution (Count)
system.membus.transDist::ReadSharedReq           5497                       # Transaction distribution (Count)
system.membus.transDist::InvalidateReq           1543                       # Transaction distribution (Count)
system.membus.pktCount_system.cpu.icache.mem_side_port::system.mem_ctrls.port        76043                       # Packet count per connected requestor and responder (Count)
system.membus.pktCount_system.cpu.dcache.mem_side_port::system.mem_ctrls.port        21399                       # Packet count per connected requestor and responder (Count)
system.membus.pktCount::total                   97442                       # Packet count per connected requestor and responder (Count)
system.membus.pktSize_system.cpu.icache.mem_side_port::system.mem_ctrls.port      3234304                       # Cumulative packet size per connected requestor and responder (Byte)
system.membus.pktSize_system.cpu.dcache.mem_side_port::system.mem_ctrls.port       790656                       # Cumulative packet size per connected requestor and responder (Byte)
system.membus.pktSize::total                  4024960                       # Cumulative packet size per connected requestor and responder (Byte)
system.membus.snoops                                0                       # Total snoops (Count)
system.membus.snoopTraffic                          0                       # Total snoop traffic (Byte)
system.membus.snoopFanout::samples              33837                       # Request fanout histogram (Count)
system.membus.snoopFanout::mean              0.000089                       # Request fanout histogram (Count)
system.membus.snoopFanout::stdev             0.009416                       # Request fanout histogram (Count)
system.membus.snoopFanout::underflows               0      0.00%      0.00% # Request fanout histogram (Count)
system.membus.snoopFanout::0                    33834     99.99%     99.99% # Request fanout histogram (Count)
system.membus.snoopFanout::1                        3      0.01%    100.00% # Request fanout histogram (Count)
system.membus.snoopFanout::2                        0      0.00%    100.00% # Request fanout histogram (Count)
system.membus.snoopFanout::overflows                0      0.00%    100.00% # Request fanout histogram (Count)
system.membus.snoopFanout::min_value                0                       # Request fanout histogram (Count)
system.membus.snoopFanout::max_value                1                       # Request fanout histogram (Count)
system.membus.snoopFanout::total                33837                       # Request fanout histogram (Count)
system.membus.power_state.pwrStateResidencyTicks::UNDEFINED  10978191500                       # Cumulative time (in ticks) in various power states (Tick)
system.membus.reqLayer0.occupancy           194531500                       # Layer occupancy (ticks) (Tick)
system.membus.reqLayer0.utilization               0.0                       # Layer utilization (Ratio)
system.membus.respLayer1.occupancy          127826000                       # Layer occupancy (ticks) (Tick)
system.membus.respLayer1.utilization              0.0                       # Layer utilization (Ratio)
system.membus.respLayer2.occupancy           36007250                       # Layer occupancy (ticks) (Tick)
system.membus.respLayer2.utilization              0.0                       # Layer utilization (Ratio)
system.membus.snoop_filter.totRequests          65149                       # Total number of requests made to the snoop filter. (Count)
system.membus.snoop_filter.hitSingleRequests        31313                       # Number of requests hitting in the snoop filter with a single holder of the requested data. (Count)
system.membus.snoop_filter.hitMultiRequests            2                       # Number of requests hitting in the snoop filter with multiple (>1) holders of the requested data. (Count)
system.membus.snoop_filter.totSnoops                0                       # Total number of snoops made to the snoop filter. (Count)
system.membus.snoop_filter.hitSingleSnoops            0                       # Number of snoops hitting in the snoop filter with a single holder of the requested data. (Count)
system.membus.snoop_filter.hitMultiSnoops            0                       # Number of snoops hitting in the snoop filter with multiple (>1) holders of the requested data. (Count)
system.voltage_domain.voltage                       1                       # Voltage in Volts (Volt)
system.workload.inst.arm                            0                       # number of arm instructions executed (Count)
system.workload.inst.quiesce                        0                       # number of quiesce instructions executed (Count)

---------- End Simulation Statistics   ----------
