
---------- Begin Simulation Statistics ----------
simSeconds                                   0.010233                       # Number of seconds simulated (Second)
simTicks                                  10233153000                       # Number of ticks simulated (Tick)
finalTick                                 10233153000                       # Number of ticks from beginning of simulation (restored from checkpoints and never reset) (Tick)
simFreq                                  1000000000000                       # The number of ticks per simulated second ((Tick/Second))
hostSeconds                                     49.54                       # Real time elapsed on the host (Second)
hostTickRate                                206562139                       # The number of ticks simulated per host second (ticks/s) ((Tick/Second))
hostMemory                                     640016                       # Number of bytes of host memory used (Byte)
simInsts                                     39561848                       # Number of instructions simulated (Count)
simOps                                       39561863                       # Number of ops (including micro ops) simulated (Count)
hostInstRate                                   798578                       # Simulator instruction rate (inst/s) ((Count/Second))
hostOpRate                                     798578                       # Simulator op (including micro ops) rate (op/s) ((Count/Second))
system.clk_domain.clock                          1000                       # Clock period in ticks (Tick)
system.cpu.numCycles                         20466307                       # Number of cpu cycles simulated (Cycle)
system.cpu.numWorkItemsStarted                      0                       # Number of work items this cpu started (Count)
system.cpu.numWorkItemsCompleted                    0                       # Number of work items this cpu completed (Count)
system.cpu.instsAdded                        42873716                       # Number of instructions added to the IQ (excludes non-spec) (Count)
system.cpu.nonSpecInstsAdded                    33296                       # Number of non-speculative instructions added to the IQ (Count)
system.cpu.instsIssued                       42092063                       # Number of instructions issued (Count)
system.cpu.squashedInstsIssued                  62913                       # Number of squashed instructions issued (Count)
system.cpu.squashedInstsExamined              3345148                       # Number of squashed instructions iterated over during squash; mainly for profiling (Count)
system.cpu.squashedOperandsExamined           1580483                       # Number of squashed operands that are examined and possibly removed from graph (Count)
system.cpu.squashedNonSpecRemoved                4548                       # Number of squashed non-spec instructions that were removed (Count)
system.cpu.numIssuedDist::samples            19569401                       # Number of insts issued each cycle (Count)
system.cpu.numIssuedDist::mean               2.150912                       # Number of insts issued each cycle (Count)
system.cpu.numIssuedDist::stdev              2.167268                       # Number of insts issued each cycle (Count)
system.cpu.numIssuedDist::underflows                0      0.00%      0.00% # Number of insts issued each cycle (Count)
system.cpu.numIssuedDist::0                   6352393     32.46%     32.46% # Number of insts issued each cycle (Count)
system.cpu.numIssuedDist::1                   3102910     15.86%     48.32% # Number of insts issued each cycle (Count)
system.cpu.numIssuedDist::2                   2673347     13.66%     61.98% # Number of insts issued each cycle (Count)
system.cpu.numIssuedDist::3                   2427839     12.41%     74.38% # Number of insts issued each cycle (Count)
system.cpu.numIssuedDist::4                   1876404      9.59%     83.97% # Number of insts issued each cycle (Count)
system.cpu.numIssuedDist::5                   1298979      6.64%     90.61% # Number of insts issued each cycle (Count)
system.cpu.numIssuedDist::6                    918088      4.69%     95.30% # Number of insts issued each cycle (Count)
system.cpu.numIssuedDist::7                    505625      2.58%     97.89% # Number of insts issued each cycle (Count)
system.cpu.numIssuedDist::8                    413816      2.11%    100.00% # Number of insts issued each cycle (Count)
system.cpu.numIssuedDist::overflows                 0      0.00%    100.00% # Number of insts issued each cycle (Count)
system.cpu.numIssuedDist::min_value                 0                       # Number of insts issued each cycle (Count)
system.cpu.numIssuedDist::max_value                 8                       # Number of insts issued each cycle (Count)
system.cpu.numIssuedDist::total              19569401                       # Number of insts issued each cycle (Count)
system.cpu.statFuBusy::No_OpClass                   0      0.00%      0.00% # attempts to use FU when none available (Count)
system.cpu.statFuBusy::IntAlu                  230332     17.95%     17.95% # attempts to use FU when none available (Count)
system.cpu.statFuBusy::IntMult                  81512      6.35%     24.30% # attempts to use FU when none available (Count)
system.cpu.statFuBusy::IntDiv                    1497      0.12%     24.42% # attempts to use FU when none available (Count)
system.cpu.statFuBusy::FloatAdd                    41      0.00%     24.42% # attempts to use FU when none available (Count)
system.cpu.statFuBusy::FloatCmp                   529      0.04%     24.46% # attempts to use FU when none available (Count)
system.cpu.statFuBusy::FloatCvt                     0      0.00%     24.46% # attempts to use FU when none available (Count)
system.cpu.statFuBusy::FloatMult                    0      0.00%     24.46% # attempts to use FU when none available (Count)
system.cpu.statFuBusy::FloatMultAcc             47365      3.69%     28.16% # attempts to use FU when none available (Count)
system.cpu.statFuBusy::FloatDiv                     0      0.00%     28.16% # attempts to use FU when none available (Count)
system.cpu.statFuBusy::FloatMisc                    0      0.00%     28.16% # attempts to use FU when none available (Count)
system.cpu.statFuBusy::FloatSqrt                    0      0.00%     28.16% # attempts to use FU when none available (Count)
system.cpu.statFuBusy::SimdAdd                      0      0.00%     28.16% # attempts to use FU when none available (Count)
system.cpu.statFuBusy::SimdAddAcc                   0      0.00%     28.16% # attempts to use FU when none available (Count)
system.cpu.statFuBusy::SimdAlu                      0      0.00%     28.16% # attempts to use FU when none available (Count)
system.cpu.statFuBusy::SimdCmp                      0      0.00%     28.16% # attempts to use FU when none available (Count)
system.cpu.statFuBusy::SimdCvt                      0      0.00%     28.16% # attempts to use FU when none available (Count)
system.cpu.statFuBusy::SimdMisc                     0      0.00%     28.16% # attempts to use FU when none available (Count)
system.cpu.statFuBusy::SimdMult                     0      0.00%     28.16% # attempts to use FU when none available (Count)
system.cpu.statFuBusy::SimdMultAcc                  0      0.00%     28.16% # attempts to use FU when none available (Count)
system.cpu.statFuBusy::SimdShift                    0      0.00%     28.16% # attempts to use FU when none available (Count)
system.cpu.statFuBusy::SimdShiftAcc                 0      0.00%     28.16% # attempts to use FU when none available (Count)
system.cpu.statFuBusy::SimdDiv                      0      0.00%     28.16% # attempts to use FU when none available (Count)
system.cpu.statFuBusy::SimdSqrt                     0      0.00%     28.16% # attempts to use FU when none available (Count)
system.cpu.statFuBusy::SimdFloatAdd                 0      0.00%     28.16% # attempts to use FU when none available (Count)
system.cpu.statFuBusy::SimdFloatAlu                 0      0.00%     28.16% # attempts to use FU when none available (Count)
system.cpu.statFuBusy::SimdFloatCmp                 0      0.00%     28.16% # attempts to use FU when none available (Count)
system.cpu.statFuBusy::SimdFloatCvt                 0      0.00%     28.16% # attempts to use FU when none available (Count)
system.cpu.statFuBusy::SimdFloatDiv                 0      0.00%     28.16% # attempts to use FU when none available (Count)
system.cpu.statFuBusy::SimdFloatMisc                0      0.00%     28.16% # attempts to use FU when none available (Count)
system.cpu.statFuBusy::SimdFloatMult                0      0.00%     28.16% # attempts to use FU when none available (Count)
system.cpu.statFuBusy::SimdFloatMultAcc             0      0.00%     28.16% # attempts to use FU when none available (Count)
system.cpu.statFuBusy::SimdFloatSqrt                0      0.00%     28.16% # attempts to use FU when none available (Count)
system.cpu.statFuBusy::SimdReduceAdd                0      0.00%     28.16% # attempts to use FU when none available (Count)
system.cpu.statFuBusy::SimdReduceAlu                0      0.00%     28.16% # attempts to use FU when none available (Count)
system.cpu.statFuBusy::SimdReduceCmp                0      0.00%     28.16% # attempts to use FU when none available (Count)
system.cpu.statFuBusy::SimdFloatReduceAdd            0      0.00%     28.16% # attempts to use FU when none available (Count)
system.cpu.statFuBusy::SimdFloatReduceCmp            0      0.00%     28.16% # attempts to use FU when none available (Count)
system.cpu.statFuBusy::SimdAes                      0      0.00%     28.16% # attempts to use FU when none available (Count)
system.cpu.statFuBusy::SimdAesMix                   0      0.00%     28.16% # attempts to use FU when none available (Count)
system.cpu.statFuBusy::SimdSha1Hash                 0      0.00%     28.16% # attempts to use FU when none available (Count)
system.cpu.statFuBusy::SimdSha1Hash2                0      0.00%     28.16% # attempts to use FU when none available (Count)
system.cpu.statFuBusy::SimdSha256Hash               0      0.00%     28.16% # attempts to use FU when none available (Count)
system.cpu.statFuBusy::SimdSha256Hash2              0      0.00%     28.16% # attempts to use FU when none available (Count)
system.cpu.statFuBusy::SimdShaSigma2                0      0.00%     28.16% # attempts to use FU when none available (Count)
system.cpu.statFuBusy::SimdShaSigma3                0      0.00%     28.16% # attempts to use FU when none available (Count)
system.cpu.statFuBusy::SimdPredAlu                  0      0.00%     28.16% # attempts to use FU when none available (Count)
system.cpu.statFuBusy::MemRead                 429559     33.48%     61.63% # attempts to use FU when none available (Count)
system.cpu.statFuBusy::MemWrite                471761     36.77%     98.40% # attempts to use FU when none available (Count)
system.cpu.statFuBusy::FloatMemRead             20526      1.60%    100.00% # attempts to use FU when none available (Count)
system.cpu.statFuBusy::FloatMemWrite                6      0.00%    100.00% # attempts to use FU when none available (Count)
system.cpu.statFuBusy::IprAccess                    0      0.00%    100.00% # attempts to use FU when none available (Count)
system.cpu.statFuBusy::InstPrefetch                 0      0.00%    100.00% # attempts to use FU when none available (Count)
system.cpu.statIssuedInstType_0::No_OpClass        28753      0.07%      0.07% # Number of instructions issued per FU type, per thread (Count)
system.cpu.statIssuedInstType_0::IntAlu      28602761     67.95%     68.02% # Number of instructions issued per FU type, per thread (Count)
system.cpu.statIssuedInstType_0::IntMult       479577      1.14%     69.16% # Number of instructions issued per FU type, per thread (Count)
system.cpu.statIssuedInstType_0::IntDiv        317822      0.76%     69.92% # Number of instructions issued per FU type, per thread (Count)
system.cpu.statIssuedInstType_0::FloatAdd        16384      0.04%     69.95% # Number of instructions issued per FU type, per thread (Count)
system.cpu.statIssuedInstType_0::FloatCmp        16384      0.04%     69.99% # Number of instructions issued per FU type, per thread (Count)
system.cpu.statIssuedInstType_0::FloatCvt        24576      0.06%     70.05% # Number of instructions issued per FU type, per thread (Count)
system.cpu.statIssuedInstType_0::FloatMult            0      0.00%     70.05% # Number of instructions issued per FU type, per thread (Count)
system.cpu.statIssuedInstType_0::FloatMultAcc       262144      0.62%     70.67% # Number of instructions issued per FU type, per thread (Count)
system.cpu.statIssuedInstType_0::FloatDiv            0      0.00%     70.67% # Number of instructions issued per FU type, per thread (Count)
system.cpu.statIssuedInstType_0::FloatMisc        16385      0.04%     70.71% # Number of instructions issued per FU type, per thread (Count)
system.cpu.statIssuedInstType_0::FloatSqrt            0      0.00%     70.71% # Number of instructions issued per FU type, per thread (Count)
system.cpu.statIssuedInstType_0::SimdAdd            0      0.00%     70.71% # Number of instructions issued per FU type, per thread (Count)
system.cpu.statIssuedInstType_0::SimdAddAcc            0      0.00%     70.71% # Number of instructions issued per FU type, per thread (Count)
system.cpu.statIssuedInstType_0::SimdAlu            0      0.00%     70.71% # Number of instructions issued per FU type, per thread (Count)
system.cpu.statIssuedInstType_0::SimdCmp            0      0.00%     70.71% # Number of instructions issued per FU type, per thread (Count)
system.cpu.statIssuedInstType_0::SimdCvt            0      0.00%     70.71% # Number of instructions issued per FU type, per thread (Count)
system.cpu.statIssuedInstType_0::SimdMisc            0      0.00%     70.71% # Number of instructions issued per FU type, per thread (Count)
system.cpu.statIssuedInstType_0::SimdMult            0      0.00%     70.71% # Number of instructions issued per FU type, per thread (Count)
system.cpu.statIssuedInstType_0::SimdMultAcc            0      0.00%     70.71% # Number of instructions issued per FU type, per thread (Count)
system.cpu.statIssuedInstType_0::SimdShift            0      0.00%     70.71% # Number of instructions issued per FU type, per thread (Count)
system.cpu.statIssuedInstType_0::SimdShiftAcc            0      0.00%     70.71% # Number of instructions issued per FU type, per thread (Count)
system.cpu.statIssuedInstType_0::SimdDiv            0      0.00%     70.71% # Number of instructions issued per FU type, per thread (Count)
system.cpu.statIssuedInstType_0::SimdSqrt            0      0.00%     70.71% # Number of instructions issued per FU type, per thread (Count)
system.cpu.statIssuedInstType_0::SimdFloatAdd            0      0.00%     70.71% # Number of instructions issued per FU type, per thread (Count)
system.cpu.statIssuedInstType_0::SimdFloatAlu            0      0.00%     70.71% # Number of instructions issued per FU type, per thread (Count)
system.cpu.statIssuedInstType_0::SimdFloatCmp            0      0.00%     70.71% # Number of instructions issued per FU type, per thread (Count)
system.cpu.statIssuedInstType_0::SimdFloatCvt            0      0.00%     70.71% # Number of instructions issued per FU type, per thread (Count)
system.cpu.statIssuedInstType_0::SimdFloatDiv            0      0.00%     70.71% # Number of instructions issued per FU type, per thread (Count)
system.cpu.statIssuedInstType_0::SimdFloatMisc            0      0.00%     70.71% # Number of instructions issued per FU type, per thread (Count)
system.cpu.statIssuedInstType_0::SimdFloatMult            0      0.00%     70.71% # Number of instructions issued per FU type, per thread (Count)
system.cpu.statIssuedInstType_0::SimdFloatMultAcc            0      0.00%     70.71% # Number of instructions issued per FU type, per thread (Count)
system.cpu.statIssuedInstType_0::SimdFloatSqrt            0      0.00%     70.71% # Number of instructions issued per FU type, per thread (Count)
system.cpu.statIssuedInstType_0::SimdReduceAdd            0      0.00%     70.71% # Number of instructions issued per FU type, per thread (Count)
system.cpu.statIssuedInstType_0::SimdReduceAlu            0      0.00%     70.71% # Number of instructions issued per FU type, per thread (Count)
system.cpu.statIssuedInstType_0::SimdReduceCmp            0      0.00%     70.71% # Number of instructions issued per FU type, per thread (Count)
system.cpu.statIssuedInstType_0::SimdFloatReduceAdd            0      0.00%     70.71% # Number of instructions issued per FU type, per thread (Count)
system.cpu.statIssuedInstType_0::SimdFloatReduceCmp            0      0.00%     70.71% # Number of instructions issued per FU type, per thread (Count)
system.cpu.statIssuedInstType_0::SimdAes            0      0.00%     70.71% # Number of instructions issued per FU type, per thread (Count)
system.cpu.statIssuedInstType_0::SimdAesMix            0      0.00%     70.71% # Number of instructions issued per FU type, per thread (Count)
system.cpu.statIssuedInstType_0::SimdSha1Hash            0      0.00%     70.71% # Number of instructions issued per FU type, per thread (Count)
system.cpu.statIssuedInstType_0::SimdSha1Hash2            0      0.00%     70.71% # Number of instructions issued per FU type, per thread (Count)
system.cpu.statIssuedInstType_0::SimdSha256Hash            0      0.00%     70.71% # Number of instructions issued per FU type, per thread (Count)
system.cpu.statIssuedInstType_0::SimdSha256Hash2            0      0.00%     70.71% # Number of instructions issued per FU type, per thread (Count)
system.cpu.statIssuedInstType_0::SimdShaSigma2            0      0.00%     70.71% # Number of instructions issued per FU type, per thread (Count)
system.cpu.statIssuedInstType_0::SimdShaSigma3            0      0.00%     70.71% # Number of instructions issued per FU type, per thread (Count)
system.cpu.statIssuedInstType_0::SimdPredAlu            0      0.00%     70.71% # Number of instructions issued per FU type, per thread (Count)
system.cpu.statIssuedInstType_0::MemRead      7309838     17.37%     88.08% # Number of instructions issued per FU type, per thread (Count)
system.cpu.statIssuedInstType_0::MemWrite      4324752     10.27%     98.35% # Number of instructions issued per FU type, per thread (Count)
system.cpu.statIssuedInstType_0::FloatMemRead       401846      0.95%     99.31% # Number of instructions issued per FU type, per thread (Count)
system.cpu.statIssuedInstType_0::FloatMemWrite       290841      0.69%    100.00% # Number of instructions issued per FU type, per thread (Count)
system.cpu.statIssuedInstType_0::IprAccess            0      0.00%    100.00% # Number of instructions issued per FU type, per thread (Count)
system.cpu.statIssuedInstType_0::InstPrefetch            0      0.00%    100.00% # Number of instructions issued per FU type, per thread (Count)
system.cpu.statIssuedInstType_0::total       42092063                       # Number of instructions issued per FU type, per thread (Count)
system.cpu.issueRate                         2.056652                       # Inst issue rate ((Count/Cycle))
system.cpu.fuBusy                             1283128                       # FU busy when requested (Count)
system.cpu.fuBusyRate                        0.030484                       # FU busy rate (busy events/executed inst) ((Count/Count))
system.cpu.intInstQueueReads                102973956                       # Number of integer instruction queue reads (Count)
system.cpu.intInstQueueWrites                45204945                       # Number of integer instruction queue writes (Count)
system.cpu.intInstQueueWakeupAccesses        40611409                       # Number of integer instruction queue wakeup accesses (Count)
system.cpu.fpInstQueueReads                   2125612                       # Number of floating instruction queue reads (Count)
system.cpu.fpInstQueueWrites                  1047624                       # Number of floating instruction queue writes (Count)
system.cpu.fpInstQueueWakeupAccesses           995353                       # Number of floating instruction queue wakeup accesses (Count)
system.cpu.vecInstQueueReads                        0                       # Number of vector instruction queue reads (Count)
system.cpu.vecInstQueueWrites                       0                       # Number of vector instruction queue writes (Count)
system.cpu.vecInstQueueWakeupAccesses               0                       # Number of vector instruction queue wakeup accesses (Count)
system.cpu.intAluAccesses                    42249411                       # Number of integer alu accesses (Count)
system.cpu.fpAluAccesses                      1097027                       # Number of floating point alu accesses (Count)
system.cpu.vecAluAccesses                           0                       # Number of vector alu accesses (Count)
system.cpu.numInsts                          41785760                       # Number of executed instructions (Count)
system.cpu.numLoadInsts                       7615090                       # Number of load instructions executed (Count)
system.cpu.numSquashedInsts                    306303                       # Number of squashed instructions skipped in execute (Count)
system.cpu.numSwp                                   0                       # Number of swp insts executed (Count)
system.cpu.numNop                                   0                       # Number of nop insts executed (Count)
system.cpu.numRefs                           12214234                       # Number of memory reference insts executed (Count)
system.cpu.numBranches                        8719491                       # Number of branches executed (Count)
system.cpu.numStoreInsts                      4599144                       # Number of stores executed (Count)
system.cpu.numRate                           2.041685                       # Inst execution rate ((Count/Cycle))
system.cpu.timesIdled                           43491                       # Number of times that the entire CPU went into an idle state and unscheduled itself (Count)
system.cpu.idleCycles                          896906                       # Total number of cycles that the CPU has spent unscheduled due to idling (Cycle)
system.cpu.committedInsts                    39561848                       # Number of Instructions Simulated (Count)
system.cpu.committedOps                      39561863                       # Number of Ops (including micro ops) Simulated (Count)
system.cpu.cpi                               0.517324                       # CPI: Cycles Per Instruction ((Cycle/Count))
system.cpu.totalCpi                          0.517324                       # CPI: Total CPI of All Threads ((Cycle/Count))
system.cpu.ipc                               1.933023                       # IPC: Instructions Per Cycle ((Count/Cycle))
system.cpu.totalIpc                          1.933023                       # IPC: Total IPC of All Threads ((Count/Cycle))
system.cpu.intRegfileReads                   52697863                       # Number of integer regfile reads (Count)
system.cpu.intRegfileWrites                  28344760                       # Number of integer regfile writes (Count)
system.cpu.fpRegfileReads                     1179675                       # Number of floating regfile reads (Count)
system.cpu.fpRegfileWrites                     686913                       # Number of floating regfile writes (Count)
system.cpu.miscRegfileReads                   1624941                       # number of misc regfile reads (Count)
system.cpu.miscRegfileWrites                   335872                       # number of misc regfile writes (Count)
system.cpu.MemDepUnit__0.insertedLoads        7757329                       # Number of loads inserted to the mem dependence unit. (Count)
system.cpu.MemDepUnit__0.insertedStores       4688420                       # Number of stores inserted to the mem dependence unit. (Count)
system.cpu.MemDepUnit__0.conflictingLoads       840720                       # Number of conflicting loads. (Count)
system.cpu.MemDepUnit__0.conflictingStores       312600                       # Number of conflicting stores. (Count)
system.cpu.MemDepUnit__1.insertedLoads              0                       # Number of loads inserted to the mem dependence unit. (Count)
system.cpu.MemDepUnit__1.insertedStores             0                       # Number of stores inserted to the mem dependence unit. (Count)
system.cpu.MemDepUnit__1.conflictingLoads            0                       # Number of conflicting loads. (Count)
system.cpu.MemDepUnit__1.conflictingStores            0                       # Number of conflicting stores. (Count)
system.cpu.MemDepUnit__2.insertedLoads              0                       # Number of loads inserted to the mem dependence unit. (Count)
system.cpu.MemDepUnit__2.insertedStores             0                       # Number of stores inserted to the mem dependence unit. (Count)
system.cpu.MemDepUnit__2.conflictingLoads            0                       # Number of conflicting loads. (Count)
system.cpu.MemDepUnit__2.conflictingStores            0                       # Number of conflicting stores. (Count)
system.cpu.MemDepUnit__3.insertedLoads              0                       # Number of loads inserted to the mem dependence unit. (Count)
system.cpu.MemDepUnit__3.insertedStores             0                       # Number of stores inserted to the mem dependence unit. (Count)
system.cpu.MemDepUnit__3.conflictingLoads            0                       # Number of conflicting loads. (Count)
system.cpu.MemDepUnit__3.conflictingStores            0                       # Number of conflicting stores. (Count)
system.cpu.branchPred.lookups                 9959902                       # Number of BP lookups (Count)
system.cpu.branchPred.condPredicted           7533293                       # Number of conditional branches predicted (Count)
system.cpu.branchPred.condIncorrect            188706                       # Number of conditional branches incorrect (Count)
system.cpu.branchPred.BTBLookups              5444869                       # Number of BTB lookups (Count)
system.cpu.branchPred.BTBHits                 5420438                       # Number of BTB hits (Count)
system.cpu.branchPred.BTBHitRatio            0.995513                       # BTB Hit Ratio (Ratio)
system.cpu.branchPred.RASUsed                       0                       # Number of times the RAS was used to get a target. (Count)
system.cpu.branchPred.RASIncorrect                  0                       # Number of incorrect RAS predictions. (Count)
system.cpu.branchPred.indirectLookups          592863                       # Number of indirect predictor lookups. (Count)
system.cpu.branchPred.indirectHits             590879                       # Number of indirect target hits. (Count)
system.cpu.branchPred.indirectMisses             1984                       # Number of indirect misses. (Count)
system.cpu.branchPred.indirectMispredicted        19926                       # Number of mispredicted indirect branches. (Count)
system.cpu.commit.commitSquashedInsts         3344734                       # The number of squashed insts skipped by commit (Count)
system.cpu.commit.commitNonSpecStalls           28748                       # The number of times commit has been forced to stall to communicate backwards (Count)
system.cpu.commit.branchMispredicts            176364                       # The number of times a branch was mispredicted (Count)
system.cpu.commit.numCommittedDist::samples     19049937                       # Number of insts commited each cycle (Count)
system.cpu.commit.numCommittedDist::mean     2.076745                       # Number of insts commited each cycle (Count)
system.cpu.commit.numCommittedDist::stdev     2.767504                       # Number of insts commited each cycle (Count)
system.cpu.commit.numCommittedDist::underflows            0      0.00%      0.00% # Number of insts commited each cycle (Count)
system.cpu.commit.numCommittedDist::0         8638977     45.35%     45.35% # Number of insts commited each cycle (Count)
system.cpu.commit.numCommittedDist::1         3244959     17.03%     62.38% # Number of insts commited each cycle (Count)
system.cpu.commit.numCommittedDist::2         1572528      8.25%     70.64% # Number of insts commited each cycle (Count)
system.cpu.commit.numCommittedDist::3         1029954      5.41%     76.04% # Number of insts commited each cycle (Count)
system.cpu.commit.numCommittedDist::4          653047      3.43%     79.47% # Number of insts commited each cycle (Count)
system.cpu.commit.numCommittedDist::5          737072      3.87%     83.34% # Number of insts commited each cycle (Count)
system.cpu.commit.numCommittedDist::6          664249      3.49%     86.83% # Number of insts commited each cycle (Count)
system.cpu.commit.numCommittedDist::7          274264      1.44%     88.27% # Number of insts commited each cycle (Count)
system.cpu.commit.numCommittedDist::8         2234887     11.73%    100.00% # Number of insts commited each cycle (Count)
system.cpu.commit.numCommittedDist::overflows            0      0.00%    100.00% # Number of insts commited each cycle (Count)
system.cpu.commit.numCommittedDist::min_value            0                       # Number of insts commited each cycle (Count)
system.cpu.commit.numCommittedDist::max_value            8                       # Number of insts commited each cycle (Count)
system.cpu.commit.numCommittedDist::total     19049937                       # Number of insts commited each cycle (Count)
system.cpu.commit.instsCommitted             39561848                       # Number of instructions committed (Count)
system.cpu.commit.opsCommitted               39561863                       # Number of ops (including micro ops) committed (Count)
system.cpu.commit.memRefs                    11515197                       # Number of memory references committed (Count)
system.cpu.commit.loads                       7164559                       # Number of loads committed (Count)
system.cpu.commit.amos                             17                       # Number of atomic instructions committed (Count)
system.cpu.commit.membars                          25                       # Number of memory barriers committed (Count)
system.cpu.commit.branches                    8127089                       # Number of branches committed (Count)
system.cpu.commit.vectorInstructions                0                       # Number of committed Vector instructions. (Count)
system.cpu.commit.floating                     995348                       # Number of committed floating point instructions. (Count)
system.cpu.commit.integer                    38444128                       # Number of committed integer instructions. (Count)
system.cpu.commit.functionCalls               1174816                       # Number of function calls committed. (Count)
system.cpu.commit.committedInstType_0::No_OpClass        24601      0.06%      0.06% # Class of committed instruction (Count)
system.cpu.commit.committedInstType_0::IntAlu     26890436     67.97%     68.03% # Class of committed instruction (Count)
system.cpu.commit.committedInstType_0::IntMult       479462      1.21%     69.24% # Class of committed instruction (Count)
system.cpu.commit.committedInstType_0::IntDiv       316295      0.80%     70.04% # Class of committed instruction (Count)
system.cpu.commit.committedInstType_0::FloatAdd        16384      0.04%     70.09% # Class of committed instruction (Count)
system.cpu.commit.committedInstType_0::FloatCmp        16384      0.04%     70.13% # Class of committed instruction (Count)
system.cpu.commit.committedInstType_0::FloatCvt        24576      0.06%     70.19% # Class of committed instruction (Count)
system.cpu.commit.committedInstType_0::FloatMult            0      0.00%     70.19% # Class of committed instruction (Count)
system.cpu.commit.committedInstType_0::FloatMultAcc       262144      0.66%     70.85% # Class of committed instruction (Count)
system.cpu.commit.committedInstType_0::FloatDiv            0      0.00%     70.85% # Class of committed instruction (Count)
system.cpu.commit.committedInstType_0::FloatMisc        16384      0.04%     70.89% # Class of committed instruction (Count)
system.cpu.commit.committedInstType_0::FloatSqrt            0      0.00%     70.89% # Class of committed instruction (Count)
system.cpu.commit.committedInstType_0::SimdAdd            0      0.00%     70.89% # Class of committed instruction (Count)
system.cpu.commit.committedInstType_0::SimdAddAcc            0      0.00%     70.89% # Class of committed instruction (Count)
system.cpu.commit.committedInstType_0::SimdAlu            0      0.00%     70.89% # Class of committed instruction (Count)
system.cpu.commit.committedInstType_0::SimdCmp            0      0.00%     70.89% # Class of committed instruction (Count)
system.cpu.commit.committedInstType_0::SimdCvt            0      0.00%     70.89% # Class of committed instruction (Count)
system.cpu.commit.committedInstType_0::SimdMisc            0      0.00%     70.89% # Class of committed instruction (Count)
system.cpu.commit.committedInstType_0::SimdMult            0      0.00%     70.89% # Class of committed instruction (Count)
system.cpu.commit.committedInstType_0::SimdMultAcc            0      0.00%     70.89% # Class of committed instruction (Count)
system.cpu.commit.committedInstType_0::SimdShift            0      0.00%     70.89% # Class of committed instruction (Count)
system.cpu.commit.committedInstType_0::SimdShiftAcc            0      0.00%     70.89% # Class of committed instruction (Count)
system.cpu.commit.committedInstType_0::SimdDiv            0      0.00%     70.89% # Class of committed instruction (Count)
system.cpu.commit.committedInstType_0::SimdSqrt            0      0.00%     70.89% # Class of committed instruction (Count)
system.cpu.commit.committedInstType_0::SimdFloatAdd            0      0.00%     70.89% # Class of committed instruction (Count)
system.cpu.commit.committedInstType_0::SimdFloatAlu            0      0.00%     70.89% # Class of committed instruction (Count)
system.cpu.commit.committedInstType_0::SimdFloatCmp            0      0.00%     70.89% # Class of committed instruction (Count)
system.cpu.commit.committedInstType_0::SimdFloatCvt            0      0.00%     70.89% # Class of committed instruction (Count)
system.cpu.commit.committedInstType_0::SimdFloatDiv            0      0.00%     70.89% # Class of committed instruction (Count)
system.cpu.commit.committedInstType_0::SimdFloatMisc            0      0.00%     70.89% # Class of committed instruction (Count)
system.cpu.commit.committedInstType_0::SimdFloatMult            0      0.00%     70.89% # Class of committed instruction (Count)
system.cpu.commit.committedInstType_0::SimdFloatMultAcc            0      0.00%     70.89% # Class of committed instruction (Count)
system.cpu.commit.committedInstType_0::SimdFloatSqrt            0      0.00%     70.89% # Class of committed instruction (Count)
system.cpu.commit.committedInstType_0::SimdReduceAdd            0      0.00%     70.89% # Class of committed instruction (Count)
system.cpu.commit.committedInstType_0::SimdReduceAlu            0      0.00%     70.89% # Class of committed instruction (Count)
system.cpu.commit.committedInstType_0::SimdReduceCmp            0      0.00%     70.89% # Class of committed instruction (Count)
system.cpu.commit.committedInstType_0::SimdFloatReduceAdd            0      0.00%     70.89% # Class of committed instruction (Count)
system.cpu.commit.committedInstType_0::SimdFloatReduceCmp            0      0.00%     70.89% # Class of committed instruction (Count)
system.cpu.commit.committedInstType_0::SimdAes            0      0.00%     70.89% # Class of committed instruction (Count)
system.cpu.commit.committedInstType_0::SimdAesMix            0      0.00%     70.89% # Class of committed instruction (Count)
system.cpu.commit.committedInstType_0::SimdSha1Hash            0      0.00%     70.89% # Class of committed instruction (Count)
system.cpu.commit.committedInstType_0::SimdSha1Hash2            0      0.00%     70.89% # Class of committed instruction (Count)
system.cpu.commit.committedInstType_0::SimdSha256Hash            0      0.00%     70.89% # Class of committed instruction (Count)
system.cpu.commit.committedInstType_0::SimdSha256Hash2            0      0.00%     70.89% # Class of committed instruction (Count)
system.cpu.commit.committedInstType_0::SimdShaSigma2            0      0.00%     70.89% # Class of committed instruction (Count)
system.cpu.commit.committedInstType_0::SimdShaSigma3            0      0.00%     70.89% # Class of committed instruction (Count)
system.cpu.commit.committedInstType_0::SimdPredAlu            0      0.00%     70.89% # Class of committed instruction (Count)
system.cpu.commit.committedInstType_0::MemRead      6795931     17.18%     88.07% # Class of committed instruction (Count)
system.cpu.commit.committedInstType_0::MemWrite      4059790     10.26%     98.33% # Class of committed instruction (Count)
system.cpu.commit.committedInstType_0::FloatMemRead       368645      0.93%     99.26% # Class of committed instruction (Count)
system.cpu.commit.committedInstType_0::FloatMemWrite       290831      0.74%    100.00% # Class of committed instruction (Count)
system.cpu.commit.committedInstType_0::IprAccess            0      0.00%    100.00% # Class of committed instruction (Count)
system.cpu.commit.committedInstType_0::InstPrefetch            0      0.00%    100.00% # Class of committed instruction (Count)
system.cpu.commit.committedInstType_0::total     39561863                       # Class of committed instruction (Count)
system.cpu.commit.commitEligibleSamples       2234887                       # number cycles where commit BW limit reached (Cycle)
system.cpu.dcache.demandHits::cpu.data       10491256                       # number of demand (read+write) hits (Count)
system.cpu.dcache.demandHits::total          10491256                       # number of demand (read+write) hits (Count)
system.cpu.dcache.overallHits::cpu.data      10491256                       # number of overall hits (Count)
system.cpu.dcache.overallHits::total         10491256                       # number of overall hits (Count)
system.cpu.dcache.demandMisses::cpu.data       150188                       # number of demand (read+write) misses (Count)
system.cpu.dcache.demandMisses::total          150188                       # number of demand (read+write) misses (Count)
system.cpu.dcache.overallMisses::cpu.data       150188                       # number of overall misses (Count)
system.cpu.dcache.overallMisses::total         150188                       # number of overall misses (Count)
system.cpu.dcache.demandMissLatency::cpu.data   8520383994                       # number of demand (read+write) miss ticks (Tick)
system.cpu.dcache.demandMissLatency::total   8520383994                       # number of demand (read+write) miss ticks (Tick)
system.cpu.dcache.overallMissLatency::cpu.data   8520383994                       # number of overall miss ticks (Tick)
system.cpu.dcache.overallMissLatency::total   8520383994                       # number of overall miss ticks (Tick)
system.cpu.dcache.demandAccesses::cpu.data     10641444                       # number of demand (read+write) accesses (Count)
system.cpu.dcache.demandAccesses::total      10641444                       # number of demand (read+write) accesses (Count)
system.cpu.dcache.overallAccesses::cpu.data     10641444                       # number of overall (read+write) accesses (Count)
system.cpu.dcache.overallAccesses::total     10641444                       # number of overall (read+write) accesses (Count)
system.cpu.dcache.demandMissRate::cpu.data     0.014113                       # miss rate for demand accesses (Ratio)
system.cpu.dcache.demandMissRate::total      0.014113                       # miss rate for demand accesses (Ratio)
system.cpu.dcache.overallMissRate::cpu.data     0.014113                       # miss rate for overall accesses (Ratio)
system.cpu.dcache.overallMissRate::total     0.014113                       # miss rate for overall accesses (Ratio)
system.cpu.dcache.demandAvgMissLatency::cpu.data 56731.456534                       # average overall miss latency ((Cycle/Count))
system.cpu.dcache.demandAvgMissLatency::total 56731.456534                       # average overall miss latency ((Cycle/Count))
system.cpu.dcache.overallAvgMissLatency::cpu.data 56731.456534                       # average overall miss latency ((Cycle/Count))
system.cpu.dcache.overallAvgMissLatency::total 56731.456534                       # average overall miss latency ((Cycle/Count))
system.cpu.dcache.blockedCycles::no_mshrs       111026                       # number of cycles access was blocked (Cycle)
system.cpu.dcache.blockedCycles::no_targets       107876                       # number of cycles access was blocked (Cycle)
system.cpu.dcache.blockedCauses::no_mshrs         2824                       # number of times access was blocked (Count)
system.cpu.dcache.blockedCauses::no_targets         1219                       # number of times access was blocked (Count)
system.cpu.dcache.avgBlocked::no_mshrs      39.315156                       # average number of cycles each access was blocked ((Cycle/Count))
system.cpu.dcache.avgBlocked::no_targets    88.495488                       # average number of cycles each access was blocked ((Cycle/Count))
system.cpu.dcache.writebacks::writebacks        15547                       # number of writebacks (Count)
system.cpu.dcache.writebacks::total             15547                       # number of writebacks (Count)
system.cpu.dcache.demandMshrHits::cpu.data       120492                       # number of demand (read+write) MSHR hits (Count)
system.cpu.dcache.demandMshrHits::total        120492                       # number of demand (read+write) MSHR hits (Count)
system.cpu.dcache.overallMshrHits::cpu.data       120492                       # number of overall MSHR hits (Count)
system.cpu.dcache.overallMshrHits::total       120492                       # number of overall MSHR hits (Count)
system.cpu.dcache.demandMshrMisses::cpu.data        29696                       # number of demand (read+write) MSHR misses (Count)
system.cpu.dcache.demandMshrMisses::total        29696                       # number of demand (read+write) MSHR misses (Count)
system.cpu.dcache.overallMshrMisses::cpu.data        29696                       # number of overall MSHR misses (Count)
system.cpu.dcache.overallMshrMisses::total        29696                       # number of overall MSHR misses (Count)
system.cpu.dcache.demandMshrMissLatency::cpu.data   1802211001                       # number of demand (read+write) MSHR miss ticks (Tick)
system.cpu.dcache.demandMshrMissLatency::total   1802211001                       # number of demand (read+write) MSHR miss ticks (Tick)
system.cpu.dcache.overallMshrMissLatency::cpu.data   1802211001                       # number of overall MSHR miss ticks (Tick)
system.cpu.dcache.overallMshrMissLatency::total   1802211001                       # number of overall MSHR miss ticks (Tick)
system.cpu.dcache.demandMshrMissRate::cpu.data     0.002791                       # mshr miss ratio for demand accesses (Ratio)
system.cpu.dcache.demandMshrMissRate::total     0.002791                       # mshr miss ratio for demand accesses (Ratio)
system.cpu.dcache.overallMshrMissRate::cpu.data     0.002791                       # mshr miss ratio for overall accesses (Ratio)
system.cpu.dcache.overallMshrMissRate::total     0.002791                       # mshr miss ratio for overall accesses (Ratio)
system.cpu.dcache.demandAvgMshrMissLatency::cpu.data 60688.678644                       # average overall mshr miss latency ((Cycle/Count))
system.cpu.dcache.demandAvgMshrMissLatency::total 60688.678644                       # average overall mshr miss latency ((Cycle/Count))
system.cpu.dcache.overallAvgMshrMissLatency::cpu.data 60688.678644                       # average overall mshr miss latency ((Cycle/Count))
system.cpu.dcache.overallAvgMshrMissLatency::total 60688.678644                       # average overall mshr miss latency ((Cycle/Count))
system.cpu.dcache.replacements                  29443                       # number of replacements (Count)
system.cpu.dcache.LoadLockedReq.hits::cpu.data            9                       # number of LoadLockedReq hits (Count)
system.cpu.dcache.LoadLockedReq.hits::total            9                       # number of LoadLockedReq hits (Count)
system.cpu.dcache.LoadLockedReq.misses::cpu.data            4                       # number of LoadLockedReq misses (Count)
system.cpu.dcache.LoadLockedReq.misses::total            4                       # number of LoadLockedReq misses (Count)
system.cpu.dcache.LoadLockedReq.missLatency::cpu.data       250500                       # number of LoadLockedReq miss ticks (Tick)
system.cpu.dcache.LoadLockedReq.missLatency::total       250500                       # number of LoadLockedReq miss ticks (Tick)
system.cpu.dcache.LoadLockedReq.accesses::cpu.data           13                       # number of LoadLockedReq accesses(hits+misses) (Count)
system.cpu.dcache.LoadLockedReq.accesses::total           13                       # number of LoadLockedReq accesses(hits+misses) (Count)
system.cpu.dcache.LoadLockedReq.missRate::cpu.data     0.307692                       # miss rate for LoadLockedReq accesses (Ratio)
system.cpu.dcache.LoadLockedReq.missRate::total     0.307692                       # miss rate for LoadLockedReq accesses (Ratio)
system.cpu.dcache.LoadLockedReq.avgMissLatency::cpu.data        62625                       # average LoadLockedReq miss latency ((Tick/Count))
system.cpu.dcache.LoadLockedReq.avgMissLatency::total        62625                       # average LoadLockedReq miss latency ((Tick/Count))
system.cpu.dcache.LoadLockedReq.mshrHits::cpu.data            1                       # number of LoadLockedReq MSHR hits (Count)
system.cpu.dcache.LoadLockedReq.mshrHits::total            1                       # number of LoadLockedReq MSHR hits (Count)
system.cpu.dcache.LoadLockedReq.mshrMisses::cpu.data            3                       # number of LoadLockedReq MSHR misses (Count)
system.cpu.dcache.LoadLockedReq.mshrMisses::total            3                       # number of LoadLockedReq MSHR misses (Count)
system.cpu.dcache.LoadLockedReq.mshrMissLatency::cpu.data       190500                       # number of LoadLockedReq MSHR miss ticks (Tick)
system.cpu.dcache.LoadLockedReq.mshrMissLatency::total       190500                       # number of LoadLockedReq MSHR miss ticks (Tick)
system.cpu.dcache.LoadLockedReq.mshrMissRate::cpu.data     0.230769                       # mshr miss rate for LoadLockedReq accesses (Ratio)
system.cpu.dcache.LoadLockedReq.mshrMissRate::total     0.230769                       # mshr miss rate for LoadLockedReq accesses (Ratio)
system.cpu.dcache.LoadLockedReq.avgMshrMissLatency::cpu.data        63500                       # average LoadLockedReq mshr miss latency ((Tick/Count))
system.cpu.dcache.LoadLockedReq.avgMshrMissLatency::total        63500                       # average LoadLockedReq mshr miss latency ((Tick/Count))
system.cpu.dcache.ReadReq.hits::cpu.data      6158072                       # number of ReadReq hits (Count)
system.cpu.dcache.ReadReq.hits::total         6158072                       # number of ReadReq hits (Count)
system.cpu.dcache.ReadReq.misses::cpu.data       132760                       # number of ReadReq misses (Count)
system.cpu.dcache.ReadReq.misses::total        132760                       # number of ReadReq misses (Count)
system.cpu.dcache.ReadReq.missLatency::cpu.data   7488677500                       # number of ReadReq miss ticks (Tick)
system.cpu.dcache.ReadReq.missLatency::total   7488677500                       # number of ReadReq miss ticks (Tick)
system.cpu.dcache.ReadReq.accesses::cpu.data      6290832                       # number of ReadReq accesses(hits+misses) (Count)
system.cpu.dcache.ReadReq.accesses::total      6290832                       # number of ReadReq accesses(hits+misses) (Count)
system.cpu.dcache.ReadReq.missRate::cpu.data     0.021104                       # miss rate for ReadReq accesses (Ratio)
system.cpu.dcache.ReadReq.missRate::total     0.021104                       # miss rate for ReadReq accesses (Ratio)
system.cpu.dcache.ReadReq.avgMissLatency::cpu.data 56407.634077                       # average ReadReq miss latency ((Tick/Count))
system.cpu.dcache.ReadReq.avgMissLatency::total 56407.634077                       # average ReadReq miss latency ((Tick/Count))
system.cpu.dcache.ReadReq.mshrHits::cpu.data       106691                       # number of ReadReq MSHR hits (Count)
system.cpu.dcache.ReadReq.mshrHits::total       106691                       # number of ReadReq MSHR hits (Count)
system.cpu.dcache.ReadReq.mshrMisses::cpu.data        26069                       # number of ReadReq MSHR misses (Count)
system.cpu.dcache.ReadReq.mshrMisses::total        26069                       # number of ReadReq MSHR misses (Count)
system.cpu.dcache.ReadReq.mshrMissLatency::cpu.data   1576399000                       # number of ReadReq MSHR miss ticks (Tick)
system.cpu.dcache.ReadReq.mshrMissLatency::total   1576399000                       # number of ReadReq MSHR miss ticks (Tick)
system.cpu.dcache.ReadReq.mshrMissRate::cpu.data     0.004144                       # mshr miss rate for ReadReq accesses (Ratio)
system.cpu.dcache.ReadReq.mshrMissRate::total     0.004144                       # mshr miss rate for ReadReq accesses (Ratio)
system.cpu.dcache.ReadReq.avgMshrMissLatency::cpu.data 60470.252023                       # average ReadReq mshr miss latency ((Tick/Count))
system.cpu.dcache.ReadReq.avgMshrMissLatency::total 60470.252023                       # average ReadReq mshr miss latency ((Tick/Count))
system.cpu.dcache.StoreCondReq.hits::cpu.data            9                       # number of StoreCondReq hits (Count)
system.cpu.dcache.StoreCondReq.hits::total            9                       # number of StoreCondReq hits (Count)
system.cpu.dcache.StoreCondReq.accesses::cpu.data            9                       # number of StoreCondReq accesses(hits+misses) (Count)
system.cpu.dcache.StoreCondReq.accesses::total            9                       # number of StoreCondReq accesses(hits+misses) (Count)
system.cpu.dcache.SwapReq.hits::cpu.data           16                       # number of SwapReq hits (Count)
system.cpu.dcache.SwapReq.hits::total              16                       # number of SwapReq hits (Count)
system.cpu.dcache.SwapReq.misses::cpu.data            1                       # number of SwapReq misses (Count)
system.cpu.dcache.SwapReq.misses::total             1                       # number of SwapReq misses (Count)
system.cpu.dcache.SwapReq.missLatency::cpu.data        62000                       # number of SwapReq miss ticks (Tick)
system.cpu.dcache.SwapReq.missLatency::total        62000                       # number of SwapReq miss ticks (Tick)
system.cpu.dcache.SwapReq.accesses::cpu.data           17                       # number of SwapReq accesses(hits+misses) (Count)
system.cpu.dcache.SwapReq.accesses::total           17                       # number of SwapReq accesses(hits+misses) (Count)
system.cpu.dcache.SwapReq.missRate::cpu.data     0.058824                       # miss rate for SwapReq accesses (Ratio)
system.cpu.dcache.SwapReq.missRate::total     0.058824                       # miss rate for SwapReq accesses (Ratio)
system.cpu.dcache.SwapReq.avgMissLatency::cpu.data        62000                       # average SwapReq miss latency ((Tick/Count))
system.cpu.dcache.SwapReq.avgMissLatency::total        62000                       # average SwapReq miss latency ((Tick/Count))
system.cpu.dcache.SwapReq.mshrMisses::cpu.data            1                       # number of SwapReq MSHR misses (Count)
system.cpu.dcache.SwapReq.mshrMisses::total            1                       # number of SwapReq MSHR misses (Count)
system.cpu.dcache.SwapReq.mshrMissLatency::cpu.data        61000                       # number of SwapReq MSHR miss ticks (Tick)
system.cpu.dcache.SwapReq.mshrMissLatency::total        61000                       # number of SwapReq MSHR miss ticks (Tick)
system.cpu.dcache.SwapReq.mshrMissRate::cpu.data     0.058824                       # mshr miss rate for SwapReq accesses (Ratio)
system.cpu.dcache.SwapReq.mshrMissRate::total     0.058824                       # mshr miss rate for SwapReq accesses (Ratio)
system.cpu.dcache.SwapReq.avgMshrMissLatency::cpu.data        61000                       # average SwapReq mshr miss latency ((Tick/Count))
system.cpu.dcache.SwapReq.avgMshrMissLatency::total        61000                       # average SwapReq mshr miss latency ((Tick/Count))
system.cpu.dcache.WriteReq.hits::cpu.data      4333184                       # number of WriteReq hits (Count)
system.cpu.dcache.WriteReq.hits::total        4333184                       # number of WriteReq hits (Count)
system.cpu.dcache.WriteReq.misses::cpu.data        17428                       # number of WriteReq misses (Count)
system.cpu.dcache.WriteReq.misses::total        17428                       # number of WriteReq misses (Count)
system.cpu.dcache.WriteReq.missLatency::cpu.data   1031706494                       # number of WriteReq miss ticks (Tick)
system.cpu.dcache.WriteReq.missLatency::total   1031706494                       # number of WriteReq miss ticks (Tick)
system.cpu.dcache.WriteReq.accesses::cpu.data      4350612                       # number of WriteReq accesses(hits+misses) (Count)
system.cpu.dcache.WriteReq.accesses::total      4350612                       # number of WriteReq accesses(hits+misses) (Count)
system.cpu.dcache.WriteReq.missRate::cpu.data     0.004006                       # miss rate for WriteReq accesses (Ratio)
system.cpu.dcache.WriteReq.missRate::total     0.004006                       # miss rate for WriteReq accesses (Ratio)
system.cpu.dcache.WriteReq.avgMissLatency::cpu.data 59198.215171                       # average WriteReq miss latency ((Tick/Count))
system.cpu.dcache.WriteReq.avgMissLatency::total 59198.215171                       # average WriteReq miss latency ((Tick/Count))
system.cpu.dcache.WriteReq.mshrHits::cpu.data        13801                       # number of WriteReq MSHR hits (Count)
system.cpu.dcache.WriteReq.mshrHits::total        13801                       # number of WriteReq MSHR hits (Count)
system.cpu.dcache.WriteReq.mshrMisses::cpu.data         3627                       # number of WriteReq MSHR misses (Count)
system.cpu.dcache.WriteReq.mshrMisses::total         3627                       # number of WriteReq MSHR misses (Count)
system.cpu.dcache.WriteReq.mshrMissLatency::cpu.data    225812001                       # number of WriteReq MSHR miss ticks (Tick)
system.cpu.dcache.WriteReq.mshrMissLatency::total    225812001                       # number of WriteReq MSHR miss ticks (Tick)
system.cpu.dcache.WriteReq.mshrMissRate::cpu.data     0.000834                       # mshr miss rate for WriteReq accesses (Ratio)
system.cpu.dcache.WriteReq.mshrMissRate::total     0.000834                       # mshr miss rate for WriteReq accesses (Ratio)
system.cpu.dcache.WriteReq.avgMshrMissLatency::cpu.data 62258.616212                       # average WriteReq mshr miss latency ((Tick/Count))
system.cpu.dcache.WriteReq.avgMshrMissLatency::total 62258.616212                       # average WriteReq mshr miss latency ((Tick/Count))
system.cpu.dcache.power_state.pwrStateResidencyTicks::UNDEFINED  10233153000                       # Cumulative time (in ticks) in various power states (Tick)
system.cpu.dcache.tags.tagsInUse           255.819492                       # Average ticks per tags in use ((Tick/Count))
system.cpu.dcache.tags.totalRefs             10520989                       # Total number of references to valid blocks. (Count)
system.cpu.dcache.tags.sampledRefs              29699                       # Sample count of references to valid blocks. (Count)
system.cpu.dcache.tags.avgRefs             354.253982                       # Average number of references to valid blocks. ((Count/Count))
system.cpu.dcache.tags.warmupTick              152000                       # The tick when the warmup percentage was hit. (Tick)
system.cpu.dcache.tags.occupancies::cpu.data   255.819492                       # Average occupied blocks per tick, per requestor ((Count/Tick))
system.cpu.dcache.tags.avgOccs::cpu.data     0.999295                       # Average percentage of cache occupancy ((Ratio/Tick))
system.cpu.dcache.tags.avgOccs::total        0.999295                       # Average percentage of cache occupancy ((Ratio/Tick))
system.cpu.dcache.tags.occupanciesTaskId::1024          256                       # Occupied blocks per task id (Count)
system.cpu.dcache.tags.ageTaskId_1024::0          208                       # Occupied blocks per task id, per block age (Count)
system.cpu.dcache.tags.ageTaskId_1024::1           48                       # Occupied blocks per task id, per block age (Count)
system.cpu.dcache.tags.ratioOccsTaskId::1024            1                       # Ratio of occupied blocks and all blocks, per task id (Ratio)
system.cpu.dcache.tags.tagAccesses           21312665                       # Number of tag accesses (Count)
system.cpu.dcache.tags.dataAccesses          21312665                       # Number of data accesses (Count)
system.cpu.dcache.tags.power_state.pwrStateResidencyTicks::UNDEFINED  10233153000                       # Cumulative time (in ticks) in various power states (Tick)
system.cpu.decode.idleCycles                  6188030                       # Number of cycles decode is idle (Cycle)
system.cpu.decode.blockedCycles               4329155                       # Number of cycles decode is blocked (Cycle)
system.cpu.decode.runCycles                   8309742                       # Number of cycles decode is running (Cycle)
system.cpu.decode.unblockCycles                561566                       # Number of cycles decode is unblocking (Cycle)
system.cpu.decode.squashCycles                 180908                       # Number of cycles decode is squashing (Cycle)
system.cpu.decode.branchResolved              5259816                       # Number of times decode resolved a branch (Count)
system.cpu.decode.branchMispred                 12388                       # Number of times decode detected a branch misprediction (Count)
system.cpu.decode.decodedInsts               44701553                       # Number of instructions handled by decode (Count)
system.cpu.decode.squashedInsts                 27755                       # Number of squashed instructions handled by decode (Count)
system.cpu.dtb_walker_cache.blockedCycles::no_mshrs            0                       # number of cycles access was blocked (Cycle)
system.cpu.dtb_walker_cache.blockedCycles::no_targets            0                       # number of cycles access was blocked (Cycle)
system.cpu.dtb_walker_cache.blockedCauses::no_mshrs            0                       # number of times access was blocked (Count)
system.cpu.dtb_walker_cache.blockedCauses::no_targets            0                       # number of times access was blocked (Count)
system.cpu.dtb_walker_cache.avgBlocked::no_mshrs          nan                       # average number of cycles each access was blocked ((Cycle/Count))
system.cpu.dtb_walker_cache.avgBlocked::no_targets          nan                       # average number of cycles each access was blocked ((Cycle/Count))
system.cpu.dtb_walker_cache.replacements            0                       # number of replacements (Count)
system.cpu.dtb_walker_cache.power_state.pwrStateResidencyTicks::UNDEFINED  10233153000                       # Cumulative time (in ticks) in various power states (Tick)
system.cpu.dtb_walker_cache.tags.tagsInUse            0                       # Average ticks per tags in use ((Tick/Count))
system.cpu.dtb_walker_cache.tags.totalRefs            0                       # Total number of references to valid blocks. (Count)
system.cpu.dtb_walker_cache.tags.sampledRefs            0                       # Sample count of references to valid blocks. (Count)
system.cpu.dtb_walker_cache.tags.avgRefs          nan                       # Average number of references to valid blocks. ((Count/Count))
system.cpu.dtb_walker_cache.tags.warmupTick            0                       # The tick when the warmup percentage was hit. (Tick)
system.cpu.dtb_walker_cache.tags.tagAccesses            0                       # Number of tag accesses (Count)
system.cpu.dtb_walker_cache.tags.dataAccesses            0                       # Number of data accesses (Count)
system.cpu.dtb_walker_cache.tags.power_state.pwrStateResidencyTicks::UNDEFINED  10233153000                       # Cumulative time (in ticks) in various power states (Tick)
system.cpu.fetch.icacheStallCycles            7045856                       # Number of cycles fetch is stalled on an Icache miss (Cycle)
system.cpu.fetch.insts                       45888959                       # Number of instructions fetch has processed (Count)
system.cpu.fetch.branches                     9959902                       # Number of branches that fetch encountered (Count)
system.cpu.fetch.predictedBranches            6011317                       # Number of branches that fetch has predicted taken (Count)
system.cpu.fetch.cycles                      12329775                       # Number of cycles fetch has run and was not squashing or blocked (Cycle)
system.cpu.fetch.squashCycles                  386562                       # Number of cycles fetch has spent squashing (Cycle)
system.cpu.fetch.miscStallCycles                  227                       # Number of cycles fetch has spent waiting on interrupts, or bad addresses, or out of MSHRs (Cycle)
system.cpu.fetch.pendingTrapStallCycles           187                       # Number of stall cycles due to pending traps (Cycle)
system.cpu.fetch.icacheWaitRetryStallCycles           75                       # Number of stall cycles due to full MSHR (Cycle)
system.cpu.fetch.cacheLines                   5630196                       # Number of cache lines fetched (Count)
system.cpu.fetch.icacheSquashes                 66582                       # Number of outstanding Icache misses that were squashed (Count)
system.cpu.fetch.nisnDist::samples           19569401                       # Number of instructions fetched each cycle (Total) (Count)
system.cpu.fetch.nisnDist::mean              2.344938                       # Number of instructions fetched each cycle (Total) (Count)
system.cpu.fetch.nisnDist::stdev             2.932229                       # Number of instructions fetched each cycle (Total) (Count)
system.cpu.fetch.nisnDist::underflows               0      0.00%      0.00% # Number of instructions fetched each cycle (Total) (Count)
system.cpu.fetch.nisnDist::0                  9726338     49.70%     49.70% # Number of instructions fetched each cycle (Total) (Count)
system.cpu.fetch.nisnDist::1                  1347160      6.88%     56.59% # Number of instructions fetched each cycle (Total) (Count)
system.cpu.fetch.nisnDist::2                  1331707      6.81%     63.39% # Number of instructions fetched each cycle (Total) (Count)
system.cpu.fetch.nisnDist::3                  1044016      5.33%     68.73% # Number of instructions fetched each cycle (Total) (Count)
system.cpu.fetch.nisnDist::4                   918979      4.70%     73.42% # Number of instructions fetched each cycle (Total) (Count)
system.cpu.fetch.nisnDist::5                  1485722      7.59%     81.01% # Number of instructions fetched each cycle (Total) (Count)
system.cpu.fetch.nisnDist::6                   692827      3.54%     84.55% # Number of instructions fetched each cycle (Total) (Count)
system.cpu.fetch.nisnDist::7                   696289      3.56%     88.11% # Number of instructions fetched each cycle (Total) (Count)
system.cpu.fetch.nisnDist::8                  2326363     11.89%    100.00% # Number of instructions fetched each cycle (Total) (Count)
system.cpu.fetch.nisnDist::overflows                0      0.00%    100.00% # Number of instructions fetched each cycle (Total) (Count)
system.cpu.fetch.nisnDist::min_value                0                       # Number of instructions fetched each cycle (Total) (Count)
system.cpu.fetch.nisnDist::max_value                8                       # Number of instructions fetched each cycle (Total) (Count)
system.cpu.fetch.nisnDist::total             19569401                       # Number of instructions fetched each cycle (Total) (Count)
system.cpu.fetch.branchRate                  0.486649                       # Number of branch fetches per cycle (Ratio)
system.cpu.fetch.rate                        2.242171                       # Number of inst fetches per cycle ((Count/Cycle))
system.cpu.icache.demandHits::cpu.inst        5578753                       # number of demand (read+write) hits (Count)
system.cpu.icache.demandHits::total           5578753                       # number of demand (read+write) hits (Count)
system.cpu.icache.overallHits::cpu.inst       5578753                       # number of overall hits (Count)
system.cpu.icache.overallHits::total          5578753                       # number of overall hits (Count)
system.cpu.icache.demandMisses::cpu.inst        51440                       # number of demand (read+write) misses (Count)
system.cpu.icache.demandMisses::total           51440                       # number of demand (read+write) misses (Count)
system.cpu.icache.overallMisses::cpu.inst        51440                       # number of overall misses (Count)
system.cpu.icache.overallMisses::total          51440                       # number of overall misses (Count)
system.cpu.icache.demandMissLatency::cpu.inst   1221948999                       # number of demand (read+write) miss ticks (Tick)
system.cpu.icache.demandMissLatency::total   1221948999                       # number of demand (read+write) miss ticks (Tick)
system.cpu.icache.overallMissLatency::cpu.inst   1221948999                       # number of overall miss ticks (Tick)
system.cpu.icache.overallMissLatency::total   1221948999                       # number of overall miss ticks (Tick)
system.cpu.icache.demandAccesses::cpu.inst      5630193                       # number of demand (read+write) accesses (Count)
system.cpu.icache.demandAccesses::total       5630193                       # number of demand (read+write) accesses (Count)
system.cpu.icache.overallAccesses::cpu.inst      5630193                       # number of overall (read+write) accesses (Count)
system.cpu.icache.overallAccesses::total      5630193                       # number of overall (read+write) accesses (Count)
system.cpu.icache.demandMissRate::cpu.inst     0.009136                       # miss rate for demand accesses (Ratio)
system.cpu.icache.demandMissRate::total      0.009136                       # miss rate for demand accesses (Ratio)
system.cpu.icache.overallMissRate::cpu.inst     0.009136                       # miss rate for overall accesses (Ratio)
system.cpu.icache.overallMissRate::total     0.009136                       # miss rate for overall accesses (Ratio)
system.cpu.icache.demandAvgMissLatency::cpu.inst 23754.840572                       # average overall miss latency ((Cycle/Count))
system.cpu.icache.demandAvgMissLatency::total 23754.840572                       # average overall miss latency ((Cycle/Count))
system.cpu.icache.overallAvgMissLatency::cpu.inst 23754.840572                       # average overall miss latency ((Cycle/Count))
system.cpu.icache.overallAvgMissLatency::total 23754.840572                       # average overall miss latency ((Cycle/Count))
system.cpu.icache.blockedCycles::no_mshrs          966                       # number of cycles access was blocked (Cycle)
system.cpu.icache.blockedCycles::no_targets            0                       # number of cycles access was blocked (Cycle)
system.cpu.icache.blockedCauses::no_mshrs           23                       # number of times access was blocked (Count)
system.cpu.icache.blockedCauses::no_targets            0                       # number of times access was blocked (Count)
system.cpu.icache.avgBlocked::no_mshrs             42                       # average number of cycles each access was blocked ((Cycle/Count))
system.cpu.icache.avgBlocked::no_targets          nan                       # average number of cycles each access was blocked ((Cycle/Count))
system.cpu.icache.writebacks::writebacks        49569                       # number of writebacks (Count)
system.cpu.icache.writebacks::total             49569                       # number of writebacks (Count)
system.cpu.icache.demandMshrHits::cpu.inst         1433                       # number of demand (read+write) MSHR hits (Count)
system.cpu.icache.demandMshrHits::total          1433                       # number of demand (read+write) MSHR hits (Count)
system.cpu.icache.overallMshrHits::cpu.inst         1433                       # number of overall MSHR hits (Count)
system.cpu.icache.overallMshrHits::total         1433                       # number of overall MSHR hits (Count)
system.cpu.icache.demandMshrMisses::cpu.inst        50007                       # number of demand (read+write) MSHR misses (Count)
system.cpu.icache.demandMshrMisses::total        50007                       # number of demand (read+write) MSHR misses (Count)
system.cpu.icache.overallMshrMisses::cpu.inst        50007                       # number of overall MSHR misses (Count)
system.cpu.icache.overallMshrMisses::total        50007                       # number of overall MSHR misses (Count)
system.cpu.icache.demandMshrMissLatency::cpu.inst   1145119500                       # number of demand (read+write) MSHR miss ticks (Tick)
system.cpu.icache.demandMshrMissLatency::total   1145119500                       # number of demand (read+write) MSHR miss ticks (Tick)
system.cpu.icache.overallMshrMissLatency::cpu.inst   1145119500                       # number of overall MSHR miss ticks (Tick)
system.cpu.icache.overallMshrMissLatency::total   1145119500                       # number of overall MSHR miss ticks (Tick)
system.cpu.icache.demandMshrMissRate::cpu.inst     0.008882                       # mshr miss ratio for demand accesses (Ratio)
system.cpu.icache.demandMshrMissRate::total     0.008882                       # mshr miss ratio for demand accesses (Ratio)
system.cpu.icache.overallMshrMissRate::cpu.inst     0.008882                       # mshr miss ratio for overall accesses (Ratio)
system.cpu.icache.overallMshrMissRate::total     0.008882                       # mshr miss ratio for overall accesses (Ratio)
system.cpu.icache.demandAvgMshrMissLatency::cpu.inst 22899.184114                       # average overall mshr miss latency ((Cycle/Count))
system.cpu.icache.demandAvgMshrMissLatency::total 22899.184114                       # average overall mshr miss latency ((Cycle/Count))
system.cpu.icache.overallAvgMshrMissLatency::cpu.inst 22899.184114                       # average overall mshr miss latency ((Cycle/Count))
system.cpu.icache.overallAvgMshrMissLatency::total 22899.184114                       # average overall mshr miss latency ((Cycle/Count))
system.cpu.icache.replacements                  49569                       # number of replacements (Count)
system.cpu.icache.ReadReq.hits::cpu.inst      5578753                       # number of ReadReq hits (Count)
system.cpu.icache.ReadReq.hits::total         5578753                       # number of ReadReq hits (Count)
system.cpu.icache.ReadReq.misses::cpu.inst        51440                       # number of ReadReq misses (Count)
system.cpu.icache.ReadReq.misses::total         51440                       # number of ReadReq misses (Count)
system.cpu.icache.ReadReq.missLatency::cpu.inst   1221948999                       # number of ReadReq miss ticks (Tick)
system.cpu.icache.ReadReq.missLatency::total   1221948999                       # number of ReadReq miss ticks (Tick)
system.cpu.icache.ReadReq.accesses::cpu.inst      5630193                       # number of ReadReq accesses(hits+misses) (Count)
system.cpu.icache.ReadReq.accesses::total      5630193                       # number of ReadReq accesses(hits+misses) (Count)
system.cpu.icache.ReadReq.missRate::cpu.inst     0.009136                       # miss rate for ReadReq accesses (Ratio)
system.cpu.icache.ReadReq.missRate::total     0.009136                       # miss rate for ReadReq accesses (Ratio)
system.cpu.icache.ReadReq.avgMissLatency::cpu.inst 23754.840572                       # average ReadReq miss latency ((Tick/Count))
system.cpu.icache.ReadReq.avgMissLatency::total 23754.840572                       # average ReadReq miss latency ((Tick/Count))
system.cpu.icache.ReadReq.mshrHits::cpu.inst         1433                       # number of ReadReq MSHR hits (Count)
system.cpu.icache.ReadReq.mshrHits::total         1433                       # number of ReadReq MSHR hits (Count)
system.cpu.icache.ReadReq.mshrMisses::cpu.inst        50007                       # number of ReadReq MSHR misses (Count)
system.cpu.icache.ReadReq.mshrMisses::total        50007                       # number of ReadReq MSHR misses (Count)
system.cpu.icache.ReadReq.mshrMissLatency::cpu.inst   1145119500                       # number of ReadReq MSHR miss ticks (Tick)
system.cpu.icache.ReadReq.mshrMissLatency::total   1145119500                       # number of ReadReq MSHR miss ticks (Tick)
system.cpu.icache.ReadReq.mshrMissRate::cpu.inst     0.008882                       # mshr miss rate for ReadReq accesses (Ratio)
system.cpu.icache.ReadReq.mshrMissRate::total     0.008882                       # mshr miss rate for ReadReq accesses (Ratio)
system.cpu.icache.ReadReq.avgMshrMissLatency::cpu.inst 22899.184114                       # average ReadReq mshr miss latency ((Tick/Count))
system.cpu.icache.ReadReq.avgMshrMissLatency::total 22899.184114                       # average ReadReq mshr miss latency ((Tick/Count))
system.cpu.icache.power_state.pwrStateResidencyTicks::UNDEFINED  10233153000                       # Cumulative time (in ticks) in various power states (Tick)
system.cpu.icache.tags.tagsInUse           372.061412                       # Average ticks per tags in use ((Tick/Count))
system.cpu.icache.tags.totalRefs              5628758                       # Total number of references to valid blocks. (Count)
system.cpu.icache.tags.sampledRefs              50005                       # Sample count of references to valid blocks. (Count)
system.cpu.icache.tags.avgRefs             112.563904                       # Average number of references to valid blocks. ((Count/Count))
system.cpu.icache.tags.warmupTick               77000                       # The tick when the warmup percentage was hit. (Tick)
system.cpu.icache.tags.occupancies::cpu.inst   372.061412                       # Average occupied blocks per tick, per requestor ((Count/Tick))
system.cpu.icache.tags.avgOccs::cpu.inst     0.726682                       # Average percentage of cache occupancy ((Ratio/Tick))
system.cpu.icache.tags.avgOccs::total        0.726682                       # Average percentage of cache occupancy ((Ratio/Tick))
system.cpu.icache.tags.occupanciesTaskId::1024          436                       # Occupied blocks per task id (Count)
system.cpu.icache.tags.ageTaskId_1024::0           97                       # Occupied blocks per task id, per block age (Count)
system.cpu.icache.tags.ageTaskId_1024::1           28                       # Occupied blocks per task id, per block age (Count)
system.cpu.icache.tags.ageTaskId_1024::2            1                       # Occupied blocks per task id, per block age (Count)
system.cpu.icache.tags.ageTaskId_1024::3          154                       # Occupied blocks per task id, per block age (Count)
system.cpu.icache.tags.ageTaskId_1024::4          156                       # Occupied blocks per task id, per block age (Count)
system.cpu.icache.tags.ratioOccsTaskId::1024     0.851562                       # Ratio of occupied blocks and all blocks, per task id (Ratio)
system.cpu.icache.tags.tagAccesses           11310391                       # Number of tag accesses (Count)
system.cpu.icache.tags.dataAccesses          11310391                       # Number of data accesses (Count)
system.cpu.icache.tags.power_state.pwrStateResidencyTicks::UNDEFINED  10233153000                       # Cumulative time (in ticks) in various power states (Tick)
system.cpu.iew.idleCycles                           0                       # Number of cycles IEW is idle (Cycle)
system.cpu.iew.squashCycles                    180908                       # Number of cycles IEW is squashing (Cycle)
system.cpu.iew.blockCycles                     485990                       # Number of cycles IEW is blocking (Cycle)
system.cpu.iew.unblockCycles                   307532                       # Number of cycles IEW is unblocking (Cycle)
system.cpu.iew.dispatchedInsts               42907012                       # Number of instructions dispatched to IQ (Count)
system.cpu.iew.dispSquashedInsts               165341                       # Number of squashed instructions skipped by dispatch (Count)
system.cpu.iew.dispLoadInsts                  7757329                       # Number of dispatched load instructions (Count)
system.cpu.iew.dispStoreInsts                 4688420                       # Number of dispatched store instructions (Count)
system.cpu.iew.dispNonSpecInsts                 33255                       # Number of dispatched non-speculative instructions (Count)
system.cpu.iew.iqFullEvents                     55405                       # Number of times the IQ has become full, causing a stall (Count)
system.cpu.iew.lsqFullEvents                   236480                       # Number of times the LSQ has become full, causing a stall (Count)
system.cpu.iew.memOrderViolationEvents            422                       # Number of memory order violations (Count)
system.cpu.iew.predictedTakenIncorrect          80230                       # Number of branches that were predicted taken incorrectly (Count)
system.cpu.iew.predictedNotTakenIncorrect       115649                       # Number of branches that were predicted not taken incorrectly (Count)
system.cpu.iew.branchMispredicts               195879                       # Number of branch mispredicts detected at execute (Count)
system.cpu.iew.instsToCommit                 41666452                       # Cumulative count of insts sent to commit (Count)
[...]
system.mem_ctrls.dram.bwRead::total         497263747                       # Total read bandwidth from this memory ((Byte/Second))
system.mem_ctrls.dram.bwInstRead::cpu.inst    312740365                       # Instruction read bandwidth from this memory ((Byte/Second))
system.mem_ctrls.dram.bwInstRead::total     312740365                       # Instruction read bandwidth from this memory ((Byte/Second))
system.mem_ctrls.dram.bwWrite::writebacks     97233766                       # Write bandwidth from this memory ((Byte/Second))
system.mem_ctrls.dram.bwWrite::total         97233766                       # Write bandwidth from this memory ((Byte/Second))
system.mem_ctrls.dram.bwTotal::writebacks     97233766                       # Total bandwidth to/from this memory ((Byte/Second))
system.mem_ctrls.dram.bwTotal::cpu.inst     312740365                       # Total bandwidth to/from this memory ((Byte/Second))
system.mem_ctrls.dram.bwTotal::cpu.data     184523382                       # Total bandwidth to/from this memory ((Byte/Second))
system.mem_ctrls.dram.bwTotal::total        594497512                       # Total bandwidth to/from this memory ((Byte/Second))
system.mem_ctrls.dram.readBursts                29907                       # Number of DRAM read bursts (Count)
system.mem_ctrls.dram.writeBursts               15724                       # Number of DRAM write bursts (Count)
system.mem_ctrls.dram.perBankRdBursts::0         2847                       # Per bank write bursts (Count)
system.mem_ctrls.dram.perBankRdBursts::1         2882                       # Per bank write bursts (Count)
system.mem_ctrls.dram.perBankRdBursts::2          910                       # Per bank write bursts (Count)
system.mem_ctrls.dram.perBankRdBursts::3          835                       # Per bank write bursts (Count)
system.mem_ctrls.dram.perBankRdBursts::4          677                       # Per bank write bursts (Count)
system.mem_ctrls.dram.perBankRdBursts::5          714                       # Per bank write bursts (Count)
system.mem_ctrls.dram.perBankRdBursts::6         3011                       # Per bank write bursts (Count)
system.mem_ctrls.dram.perBankRdBursts::7         2710                       # Per bank write bursts (Count)
system.mem_ctrls.dram.perBankRdBursts::8         2708                       # Per bank write bursts (Count)
system.mem_ctrls.dram.perBankRdBursts::9         2726                       # Per bank write bursts (Count)
system.mem_ctrls.dram.perBankRdBursts::10         1876                       # Per bank write bursts (Count)
system.mem_ctrls.dram.perBankRdBursts::11         1142                       # Per bank write bursts (Count)
system.mem_ctrls.dram.perBankRdBursts::12         1063                       # Per bank write bursts (Count)
system.mem_ctrls.dram.perBankRdBursts::13         1029                       # Per bank write bursts (Count)
system.mem_ctrls.dram.perBankRdBursts::14         1971                       # Per bank write bursts (Count)
system.mem_ctrls.dram.perBankRdBursts::15         2806                       # Per bank write bursts (Count)
system.mem_ctrls.dram.perBankWrBursts::0         2448                       # Per bank write bursts (Count)
system.mem_ctrls.dram.perBankWrBursts::1         2462                       # Per bank write bursts (Count)
system.mem_ctrls.dram.perBankWrBursts::2          446                       # Per bank write bursts (Count)
system.mem_ctrls.dram.perBankWrBursts::3          419                       # Per bank write bursts (Count)
system.mem_ctrls.dram.perBankWrBursts::4          453                       # Per bank write bursts (Count)
system.mem_ctrls.dram.perBankWrBursts::5          270                       # Per bank write bursts (Count)
system.mem_ctrls.dram.perBankWrBursts::6         1414                       # Per bank write bursts (Count)
system.mem_ctrls.dram.perBankWrBursts::7          527                       # Per bank write bursts (Count)
system.mem_ctrls.dram.perBankWrBursts::8          526                       # Per bank write bursts (Count)
system.mem_ctrls.dram.perBankWrBursts::9          520                       # Per bank write bursts (Count)
system.mem_ctrls.dram.perBankWrBursts::10          550                       # Per bank write bursts (Count)
system.mem_ctrls.dram.perBankWrBursts::11          530                       # Per bank write bursts (Count)
system.mem_ctrls.dram.perBankWrBursts::12          565                       # Per bank write bursts (Count)
system.mem_ctrls.dram.perBankWrBursts::13          533                       # Per bank write bursts (Count)
system.mem_ctrls.dram.perBankWrBursts::14         1586                       # Per bank write bursts (Count)
system.mem_ctrls.dram.perBankWrBursts::15         2475                       # Per bank write bursts (Count)
system.mem_ctrls.dram.totQLat               336713250                       # Total ticks spent queuing (Tick)
system.mem_ctrls.dram.totBusLat             149535000                       # Total ticks spent in databus transfers (Tick)
system.mem_ctrls.dram.totMemAccLat          897469500                       # Total ticks spent from burst creation until serviced by the DRAM (Tick)
system.mem_ctrls.dram.avgQLat                11258.68                       # Average queueing delay per DRAM burst ((Tick/Count))
system.mem_ctrls.dram.avgBusLat               5000.00                       # Average bus latency per DRAM burst ((Tick/Count))
system.mem_ctrls.dram.avgMemAccLat           30008.68                       # Average memory access latency per DRAM burst ((Tick/Count))
system.mem_ctrls.dram.readRowHits               26067                       # Number of row buffer hits during reads (Count)
system.mem_ctrls.dram.writeRowHits              14347                       # Number of row buffer hits during writes (Count)
system.mem_ctrls.dram.readRowHitRate            87.16                       # Row buffer hit rate for reads (Ratio)
system.mem_ctrls.dram.writeRowHitRate           91.24                       # Row buffer hit rate for writes (Ratio)
system.mem_ctrls.dram.bytesPerActivate::samples         5206                       # Bytes accessed per row activation (Byte)
system.mem_ctrls.dram.bytesPerActivate::mean   560.473300                       # Bytes accessed per row activation (Byte)
system.mem_ctrls.dram.bytesPerActivate::gmean   366.596059                       # Bytes accessed per row activation (Byte)
system.mem_ctrls.dram.bytesPerActivate::stdev   397.952937                       # Bytes accessed per row activation (Byte)
system.mem_ctrls.dram.bytesPerActivate::0-127          969     18.61%     18.61% # Bytes accessed per row activation (Byte)
system.mem_ctrls.dram.bytesPerActivate::128-255          758     14.56%     33.17% # Bytes accessed per row activation (Byte)
system.mem_ctrls.dram.bytesPerActivate::256-383          428      8.22%     41.39% # Bytes accessed per row activation (Byte)
system.mem_ctrls.dram.bytesPerActivate::384-511          263      5.05%     46.45% # Bytes accessed per row activation (Byte)
system.mem_ctrls.dram.bytesPerActivate::512-639          482      9.26%     55.70% # Bytes accessed per row activation (Byte)
system.mem_ctrls.dram.bytesPerActivate::640-767          157      3.02%     58.72% # Bytes accessed per row activation (Byte)
system.mem_ctrls.dram.bytesPerActivate::768-895          170      3.27%     61.99% # Bytes accessed per row activation (Byte)
system.mem_ctrls.dram.bytesPerActivate::896-1023          172      3.30%     65.29% # Bytes accessed per row activation (Byte)
system.mem_ctrls.dram.bytesPerActivate::1024-1151         1807     34.71%    100.00% # Bytes accessed per row activation (Byte)
system.mem_ctrls.dram.bytesPerActivate::total         5206                       # Bytes accessed per row activation (Byte)
system.mem_ctrls.dram.bytesRead               1914048                       # Total bytes read (Byte)
system.mem_ctrls.dram.bytesWritten            1006336                       # Total bytes written (Byte)
system.mem_ctrls.dram.avgRdBW              187.043817                       # Average DRAM read bandwidth in MiBytes/s ((Byte/Second))
system.mem_ctrls.dram.avgWrBW               98.340756                       # Average DRAM write bandwidth in MiBytes/s ((Byte/Second))
system.mem_ctrls.dram.peakBW                 12800.00                       # Theoretical peak bandwidth in MiByte/s ((Byte/Second))
system.mem_ctrls.dram.busUtil                    2.23                       # Data bus utilization in percentage (Ratio)
system.mem_ctrls.dram.busUtilRead                1.46                       # Data bus utilization in percentage for reads (Ratio)
system.mem_ctrls.dram.busUtilWrite               0.77                       # Data bus utilization in percentage for writes (Ratio)
system.mem_ctrls.dram.pageHitRate               88.57                       # Row buffer hit rate, read and write combined (Ratio)
system.mem_ctrls.dram.power_state.pwrStateResidencyTicks::UNDEFINED  10233153000                       # Cumulative time (in ticks) in various power states (Tick)
system.mem_ctrls.dram.rank0.actEnergy        19392240                       # Energy for activate commands per rank (pJ) (Joule)
system.mem_ctrls.dram.rank0.preEnergy        10284450                       # Energy for precharge commands per rank (pJ) (Joule)
system.mem_ctrls.dram.rank0.readEnergy      104144040                       # Energy for read commands per rank (pJ) (Joule)
system.mem_ctrls.dram.rank0.writeEnergy      44051580                       # Energy for write commands per rank (pJ) (Joule)
system.mem_ctrls.dram.rank0.refreshEnergy 807636960.000000                       # Energy for refresh commands per rank (pJ) (Joule)
system.mem_ctrls.dram.rank0.actBackEnergy   2278464990                       # Energy for active background per rank (pJ) (Joule)
system.mem_ctrls.dram.rank0.preBackEnergy   2010823680                       # Energy for precharge background per rank (pJ) (Joule)
system.mem_ctrls.dram.rank0.actPowerDownEnergy            0                       # Energy for active power-down per rank (pJ) (Joule)
system.mem_ctrls.dram.rank0.prePowerDownEnergy            0                       # Energy for precharge power-down per rank (pJ) (Joule)
system.mem_ctrls.dram.rank0.selfRefreshEnergy            0                       # Energy for self refresh per rank (pJ) (Joule)
system.mem_ctrls.dram.rank0.totalEnergy    5274797940                       # Total energy per rank (pJ) (Joule)
system.mem_ctrls.dram.rank0.averagePower   515.461651                       # Core power per rank (mW) (Watt)
system.mem_ctrls.dram.rank0.totalIdleTime            0                       # Total Idle time Per DRAM Rank (Tick)
system.mem_ctrls.dram.rank0.pwrStateTime::IDLE   5205843500                       # Time in different power states (Tick)
system.mem_ctrls.dram.rank0.pwrStateTime::REF    341640000                       # Time in different power states (Tick)
system.mem_ctrls.dram.rank0.pwrStateTime::SREF            0                       # Time in different power states (Tick)
system.mem_ctrls.dram.rank0.pwrStateTime::PRE_PDN            0                       # Time in different power states (Tick)
system.mem_ctrls.dram.rank0.pwrStateTime::ACT   4685669500                       # Time in different power states (Tick)
system.mem_ctrls.dram.rank0.pwrStateTime::ACT_PDN            0                       # Time in different power states (Tick)
system.mem_ctrls.dram.rank1.actEnergy        17850000                       # Energy for activate commands per rank (pJ) (Joule)
system.mem_ctrls.dram.rank1.preEnergy         9472320                       # Energy for precharge commands per rank (pJ) (Joule)
system.mem_ctrls.dram.rank1.readEnergy      109377660                       # Energy for read commands per rank (pJ) (Joule)
system.mem_ctrls.dram.rank1.writeEnergy      38027700                       # Energy for write commands per rank (pJ) (Joule)
system.mem_ctrls.dram.rank1.refreshEnergy 807636960.000000                       # Energy for refresh commands per rank (pJ) (Joule)
system.mem_ctrls.dram.rank1.actBackEnergy   2113674570                       # Energy for active background per rank (pJ) (Joule)
system.mem_ctrls.dram.rank1.preBackEnergy   2149594560                       # Energy for precharge background per rank (pJ) (Joule)
system.mem_ctrls.dram.rank1.actPowerDownEnergy            0                       # Energy for active power-down per rank (pJ) (Joule)
system.mem_ctrls.dram.rank1.prePowerDownEnergy            0                       # Energy for precharge power-down per rank (pJ) (Joule)
system.mem_ctrls.dram.rank1.selfRefreshEnergy            0                       # Energy for self refresh per rank (pJ) (Joule)
system.mem_ctrls.dram.rank1.totalEnergy    5245633770                       # Total energy per rank (pJ) (Joule)
system.mem_ctrls.dram.rank1.averagePower   512.611682                       # Core power per rank (mW) (Watt)
system.mem_ctrls.dram.rank1.totalIdleTime            0                       # Total Idle time Per DRAM Rank (Tick)
system.mem_ctrls.dram.rank1.pwrStateTime::IDLE   5567443500                       # Time in different power states (Tick)
system.mem_ctrls.dram.rank1.pwrStateTime::REF    341640000                       # Time in different power states (Tick)
system.mem_ctrls.dram.rank1.pwrStateTime::SREF            0                       # Time in different power states (Tick)
system.mem_ctrls.dram.rank1.pwrStateTime::PRE_PDN            0                       # Time in different power states (Tick)
system.mem_ctrls.dram.rank1.pwrStateTime::ACT   4324069500                       # Time in different power states (Tick)
system.mem_ctrls.dram.rank1.pwrStateTime::ACT_PDN            0                       # Time in different power states (Tick)
system.mem_ctrls.power_state.pwrStateResidencyTicks::UNDEFINED  10233153000                       # Cumulative time (in ticks) in various power states (Tick)
system.membus.transDist::ReadResp               76076                       # Transaction distribution (Count)
system.membus.transDist::WritebackDirty         15547                       # Transaction distribution (Count)
system.membus.transDist::WritebackClean         49569                       # Transaction distribution (Count)
system.membus.transDist::CleanEvict             13896                       # Transaction distribution (Count)
system.membus.transDist::ReadExReq               3432                       # Transaction distribution (Count)
system.membus.transDist::ReadExResp              3432                       # Transaction distribution (Count)
system.membus.transDist::ReadCleanReq           50007                       # Transaction distribution (Count)
system.membus.transDist::ReadSharedReq          26072                       # Transaction distribution (Count)
system.membus.transDist::InvalidateReq            196                       # Transaction distribution (Count)
system.membus.pktCount_system.cpu.icache.mem_side_port::system.mem_ctrls.port       149581                       # Packet count per connected requestor and responder (Count)
system.membus.pktCount_system.cpu.dcache.mem_side_port::system.mem_ctrls.port        88646                       # Packet count per connected requestor and responder (Count)
system.membus.pktCount::total                  238227                       # Packet count per connected requestor and responder (Count)
system.membus.pktSize_system.cpu.icache.mem_side_port::system.mem_ctrls.port      6372736                       # Cumulative packet size per connected requestor and responder (Byte)
system.membus.pktSize_system.cpu.dcache.mem_side_port::system.mem_ctrls.port      2883200                       # Cumulative packet size per connected requestor and responder (Byte)
system.membus.pktSize::total                  9255936                       # Cumulative packet size per connected requestor and responder (Byte)
system.membus.snoops                                0                       # Total snoops (Count)
system.membus.snoopTraffic                          0                       # Total snoop traffic (Byte)
system.membus.snoopFanout::samples              79707                       # Request fanout histogram (Count)
system.membus.snoopFanout::mean                     0                       # Request fanout histogram (Count)
system.membus.snoopFanout::stdev                    0                       # Request fanout histogram (Count)
system.membus.snoopFanout::underflows               0      0.00%      0.00% # Request fanout histogram (Count)
system.membus.snoopFanout::0                    79707    100.00%    100.00% # Request fanout histogram (Count)
system.membus.snoopFanout::1                        0      0.00%    100.00% # Request fanout histogram (Count)
system.membus.snoopFanout::2                        0      0.00%    100.00% # Request fanout histogram (Count)
system.membus.snoopFanout::3                        0      0.00%    100.00% # Request fanout histogram (Count)
system.membus.snoopFanout::4                        0      0.00%    100.00% # Request fanout histogram (Count)
system.membus.snoopFanout::overflows                0      0.00%    100.00% # Request fanout histogram (Count)
system.membus.snoopFanout::min_value                0                       # Request fanout histogram (Count)
system.membus.snoopFanout::max_value                0                       # Request fanout histogram (Count)
system.membus.snoopFanout::total                79707                       # Request fanout histogram (Count)
system.membus.power_state.pwrStateResidencyTicks::UNDEFINED  10233153000                       # Cumulative time (in ticks) in various power states (Tick)
system.membus.reqLayer0.occupancy           433236000                       # Layer occupancy (ticks) (Tick)
system.membus.reqLayer0.utilization               0.0                       # Layer utilization (Ratio)
system.membus.respLayer1.occupancy          250281500                       # Layer occupancy (ticks) (Tick)
system.membus.respLayer1.utilization              0.0                       # Layer utilization (Ratio)
system.membus.respLayer2.occupancy          156104000                       # Layer occupancy (ticks) (Tick)
system.membus.respLayer2.utilization              0.0                       # Layer utilization (Ratio)
system.membus.snoop_filter.totRequests         158719                       # Total number of requests made to the snoop filter. (Count)
system.membus.snoop_filter.hitSingleRequests        79012                       # Number of requests hitting in the snoop filter with a single holder of the requested data. (Count)
system.membus.snoop_filter.hitMultiRequests            0                       # Number of requests hitting in the snoop filter with multiple (>1) holders of the requested data. (Count)
system.membus.snoop_filter.totSnoops                0                       # Total number of snoops made to the snoop filter. (Count)
system.membus.snoop_filter.hitSingleSnoops            0                       # Number of snoops hitting in the snoop filter with a single holder of the requested data. (Count)
system.membus.snoop_filter.hitMultiSnoops            0                       # Number of snoops hitting in the snoop filter with multiple (>1) holders of the requested data. (Count)
system.voltage_domain.voltage                       1                       # Voltage in Volts (Volt)
system.workload.inst.arm                            0                       # number of arm instructions executed (Count)
system.workload.inst.quiesce                        0                       # number of quiesce instructions executed (Count)

---------- End Simulation Statistics   ----------
