
---------- Begin Simulation Statistics ----------
simSeconds                                   0.009599                       # Number of seconds simulated (Second)
simTicks                                   9598850000                       # Number of ticks simulated (Tick)
finalTick                                  9598850000                       # Number of ticks from beginning of simulation (restored from checkpoints and never reset) (Tick)
simFreq                                  1000000000000                       # The number of ticks per simulated second ((Tick/Second))
hostSeconds                                     52.54                       # Real time elapsed on the host (Second)
hostTickRate                                182686194                       # The number of ticks simulated per host second (ticks/s) ((Tick/Second))
hostMemory                                     641036                       # Number of bytes of host memory used (Byte)
simInsts                                     39561848                       # Number of instructions simulated (Count)
simOps                                       39561863                       # Number of ops (including micro ops) simulated (Count)
hostInstRate                                   752944                       # Simulator instruction rate (inst/s) ((Count/Second))
hostOpRate                                     752944                       # Simulator op (including micro ops) rate (op/s) ((Count/Second))
system.clk_domain.clock                          1000                       # Clock period in ticks (Tick)
system.cpu.numCycles                         19197701                       # Number of cpu cycles simulated (Cycle)
system.cpu.numWorkItemsStarted                      0                       # Number of work items this cpu started (Count)
system.cpu.numWorkItemsCompleted                    0                       # Number of work items this cpu completed (Count)
system.cpu.instsAdded                        42869470                       # Number of instructions added to the IQ (excludes non-spec) (Count)
system.cpu.nonSpecInstsAdded                    33290                       # Number of non-speculative instructions added to the IQ (Count)
system.cpu.instsIssued                       42054172                       # Number of instructions issued (Count)
system.cpu.squashedInstsIssued                  62692                       # Number of squashed instructions issued (Count)
system.cpu.squashedInstsExamined              3340896                       # Number of squashed instructions iterated over during squash; mainly for profiling (Count)
system.cpu.squashedOperandsExamined           1577920                       # Number of squashed operands that are examined and possibly removed from graph (Count)
system.cpu.squashedNonSpecRemoved                4542                       # Number of squashed non-spec instructions that were removed (Count)
system.cpu.numIssuedDist::samples            18301978                       # Number of insts issued each cycle (Count)
system.cpu.numIssuedDist::mean               2.297794                       # Number of insts issued each cycle (Count)
system.cpu.numIssuedDist::stdev              2.163107                       # Number of insts issued each cycle (Count)
system.cpu.numIssuedDist::underflows                0      0.00%      0.00% # Number of insts issued each cycle (Count)
system.cpu.numIssuedDist::0                   5152529     28.15%     28.15% # Number of insts issued each cycle (Count)
system.cpu.numIssuedDist::1                   3032387     16.57%     44.72% # Number of insts issued each cycle (Count)
system.cpu.numIssuedDist::2                   2643484     14.44%     59.17% # Number of insts issued each cycle (Count)
system.cpu.numIssuedDist::3                   2418401     13.21%     72.38% # Number of insts issued each cycle (Count)
system.cpu.numIssuedDist::4                   1912970     10.45%     82.83% # Number of insts issued each cycle (Count)
system.cpu.numIssuedDist::5                   1342137      7.33%     90.16% # Number of insts issued each cycle (Count)
system.cpu.numIssuedDist::6                    891339      4.87%     95.03% # Number of insts issued each cycle (Count)
system.cpu.numIssuedDist::7                    500833      2.74%     97.77% # Number of insts issued each cycle (Count)
system.cpu.numIssuedDist::8                    407898      2.23%    100.00% # Number of insts issued each cycle (Count)
system.cpu.numIssuedDist::overflows                 0      0.00%    100.00% # Number of insts issued each cycle (Count)
system.cpu.numIssuedDist::min_value                 0                       # Number of insts issued each cycle (Count)
system.cpu.numIssuedDist::max_value                 8                       # Number of insts issued each cycle (Count)
system.cpu.numIssuedDist::total              18301978                       # Number of insts issued each cycle (Count)
system.cpu.statFuBusy::No_OpClass                   0      0.00%      0.00% # attempts to use FU when none available (Count)
system.cpu.statFuBusy::IntAlu                  223888     17.17%     17.17% # attempts to use FU when none available (Count)
system.cpu.statFuBusy::IntMult                  81512      6.25%     23.42% # attempts to use FU when none available (Count)
system.cpu.statFuBusy::IntDiv                    1473      0.11%     23.53% # attempts to use FU when none available (Count)
system.cpu.statFuBusy::FloatAdd                    15      0.00%     23.53% # attempts to use FU when none available (Count)
system.cpu.statFuBusy::FloatCmp                     8      0.00%     23.53% # attempts to use FU when none available (Count)
system.cpu.statFuBusy::FloatCvt                     0      0.00%     23.53% # attempts to use FU when none available (Count)
system.cpu.statFuBusy::FloatMult                    0      0.00%     23.53% # attempts to use FU when none available (Count)
system.cpu.statFuBusy::FloatMultAcc             49280      3.78%     27.31% # attempts to use FU when none available (Count)
system.cpu.statFuBusy::FloatDiv                     0      0.00%     27.31% # attempts to use FU when none available (Count)
system.cpu.statFuBusy::FloatMisc                    0      0.00%     27.31% # attempts to use FU when none available (Count)
system.cpu.statFuBusy::FloatSqrt                    0      0.00%     27.31% # attempts to use FU when none available (Count)
system.cpu.statFuBusy::SimdAdd                      0      0.00%     27.31% # attempts to use FU when none available (Count)
system.cpu.statFuBusy::SimdAddAcc                   0      0.00%     27.31% # attempts to use FU when none available (Count)
system.cpu.statFuBusy::SimdAlu                      0      0.00%     27.31% # attempts to use FU when none available (Count)
system.cpu.statFuBusy::SimdCmp                      0      0.00%     27.31% # attempts to use FU when none available (Count)
system.cpu.statFuBusy::SimdCvt                      0      0.00%     27.31% # attempts to use FU when none available (Count)
system.cpu.statFuBusy::SimdMisc                     0      0.00%     27.31% # attempts to use FU when none available (Count)
system.cpu.statFuBusy::SimdMult                     0      0.00%     27.31% # attempts to use FU when none available (Count)
system.cpu.statFuBusy::SimdMultAcc                  0      0.00%     27.31% # attempts to use FU when none available (Count)
system.cpu.statFuBusy::SimdShift                    0      0.00%     27.31% # attempts to use FU when none available (Count)
system.cpu.statFuBusy::SimdShiftAcc                 0      0.00%     27.31% # attempts to use FU when none available (Count)
system.cpu.statFuBusy::SimdDiv                      0      0.00%     27.31% # attempts to use FU when none available (Count)
system.cpu.statFuBusy::SimdSqrt                     0      0.00%     27.31% # attempts to use FU when none available (Count)
system.cpu.statFuBusy::SimdFloatAdd                 0      0.00%     27.31% # attempts to use FU when none available (Count)
system.cpu.statFuBusy::SimdFloatAlu                 0      0.00%     27.31% # attempts to use FU when none available (Count)
system.cpu.statFuBusy::SimdFloatCmp                 0      0.00%     27.31% # attempts to use FU when none available (Count)
system.cpu.statFuBusy::SimdFloatCvt                 0      0.00%     27.31% # attempts to use FU when none available (Count)
system.cpu.statFuBusy::SimdFloatDiv                 0      0.00%     27.31% # attempts to use FU when none available (Count)
system.cpu.statFuBusy::SimdFloatMisc                0      0.00%     27.31% # attempts to use FU when none available (Count)
system.cpu.statFuBusy::SimdFloatMult                0      0.00%     27.31% # attempts to use FU when none available (Count)
system.cpu.statFuBusy::SimdFloatMultAcc             0      0.00%     27.31% # attempts to use FU when none available (Count)
system.cpu.statFuBusy::SimdFloatSqrt                0      0.00%     27.31% # attempts to use FU when none available (Count)
system.cpu.statFuBusy::SimdReduceAdd                0      0.00%     27.31% # attempts to use FU when none available (Count)
system.cpu.statFuBusy::SimdReduceAlu                0      0.00%     27.31% # attempts to use FU when none available (Count)
system.cpu.statFuBusy::SimdReduceCmp                0      0.00%     27.31% # attempts to use FU when none available (Count)
system.cpu.statFuBusy::SimdFloatReduceAdd            0      0.00%     27.31% # attempts to use FU when none available (Count)
system.cpu.statFuBusy::SimdFloatReduceCmp            0      0.00%     27.31% # attempts to use FU when none available (Count)
system.cpu.statFuBusy::SimdAes                      0      0.00%     27.31% # attempts to use FU when none available (Count)
system.cpu.statFuBusy::SimdAesMix                   0      0.00%     27.31% # attempts to use FU when none available (Count)
system.cpu.statFuBusy::SimdSha1Hash                 0      0.00%     27.31% # attempts to use FU when none available (Count)
system.cpu.statFuBusy::SimdSha1Hash2                0      0.00%     27.31% # attempts to use FU when none available (Count)
system.cpu.statFuBusy::SimdSha256Hash               0      0.00%     27.31% # attempts to use FU when none available (Count)
system.cpu.statFuBusy::SimdSha256Hash2              0      0.00%     27.31% # attempts to use FU when none available (Count)
system.cpu.statFuBusy::SimdShaSigma2                0      0.00%     27.31% # attempts to use FU when none available (Count)
system.cpu.statFuBusy::SimdShaSigma3                0      0.00%     27.31% # attempts to use FU when none available (Count)
system.cpu.statFuBusy::SimdPredAlu                  0      0.00%     27.31% # attempts to use FU when none available (Count)
system.cpu.statFuBusy::MemRead                 426590     32.71%     60.02% # attempts to use FU when none available (Count)
system.cpu.statFuBusy::MemWrite                472255     36.21%     96.23% # attempts to use FU when none available (Count)
system.cpu.statFuBusy::FloatMemRead             49129      3.77%    100.00% # attempts to use FU when none available (Count)
system.cpu.statFuBusy::FloatMemWrite                6      0.00%    100.00% # attempts to use FU when none available (Count)
system.cpu.statFuBusy::IprAccess                    0      0.00%    100.00% # attempts to use FU when none available (Count)
system.cpu.statFuBusy::InstPrefetch                 0      0.00%    100.00% # attempts to use FU when none available (Count)
system.cpu.statIssuedInstType_0::No_OpClass        28743      0.07%      0.07% # Number of instructions issued per FU type, per thread (Count)
system.cpu.statIssuedInstType_0::IntAlu      28600895     68.01%     68.08% # Number of instructions issued per FU type, per thread (Count)
system.cpu.statIssuedInstType_0::IntMult       479561      1.14%     69.22% # Number of instructions issued per FU type, per thread (Count)
system.cpu.statIssuedInstType_0::IntDiv        317793      0.76%     69.97% # Number of instructions issued per FU type, per thread (Count)
system.cpu.statIssuedInstType_0::FloatAdd        16384      0.04%     70.01% # Number of instructions issued per FU type, per thread (Count)
system.cpu.statIssuedInstType_0::FloatCmp        16384      0.04%     70.05% # Number of instructions issued per FU type, per thread (Count)
system.cpu.statIssuedInstType_0::FloatCvt        24576      0.06%     70.11% # Number of instructions issued per FU type, per thread (Count)
system.cpu.statIssuedInstType_0::FloatMult            0      0.00%     70.11% # Number of instructions issued per FU type, per thread (Count)
system.cpu.statIssuedInstType_0::FloatMultAcc       262144      0.62%     70.73% # Number of instructions issued per FU type, per thread (Count)
system.cpu.statIssuedInstType_0::FloatDiv            0      0.00%     70.73% # Number of instructions issued per FU type, per thread (Count)
system.cpu.statIssuedInstType_0::FloatMisc        16384      0.04%     70.77% # Number of instructions issued per FU type, per thread (Count)
system.cpu.statIssuedInstType_0::FloatSqrt            0      0.00%     70.77% # Number of instructions issued per FU type, per thread (Count)
system.cpu.statIssuedInstType_0::SimdAdd            0      0.00%     70.77% # Number of instructions issued per FU type, per thread (Count)
system.cpu.statIssuedInstType_0::SimdAddAcc            0      0.00%     70.77% # Number of instructions issued per FU type, per thread (Count)
system.cpu.statIssuedInstType_0::SimdAlu            0      0.00%     70.77% # Number of instructions issued per FU type, per thread (Count)
system.cpu.statIssuedInstType_0::SimdCmp            0      0.00%     70.77% # Number of instructions issued per FU type, per thread (Count)
system.cpu.statIssuedInstType_0::SimdCvt            0      0.00%     70.77% # Number of instructions issued per FU type, per thread (Count)
system.cpu.statIssuedInstType_0::SimdMisc            0      0.00%     70.77% # Number of instructions issued per FU type, per thread (Count)
system.cpu.statIssuedInstType_0::SimdMult            0      0.00%     70.77% # Number of instructions issued per FU type, per thread (Count)
system.cpu.statIssuedInstType_0::SimdMultAcc            0      0.00%     70.77% # Number of instructions issued per FU type, per thread (Count)
system.cpu.statIssuedInstType_0::SimdShift            0      0.00%     70.77% # Number of instructions issued per FU type, per thread (Count)
system.cpu.statIssuedInstType_0::SimdShiftAcc            0      0.00%     70.77% # Number of instructions issued per FU type, per thread (Count)
system.cpu.statIssuedInstType_0::SimdDiv            0      0.00%     70.77% # Number of instructions issued per FU type, per thread (Count)
system.cpu.statIssuedInstType_0::SimdSqrt            0      0.00%     70.77% # Number of instructions issued per FU type, per thread (Count)
system.cpu.statIssuedInstType_0::SimdFloatAdd            0      0.00%     70.77% # Number of instructions issued per FU type, per thread (Count)
system.cpu.statIssuedInstType_0::SimdFloatAlu            0      0.00%     70.77% # Number of instructions issued per FU type, per thread (Count)
system.cpu.statIssuedInstType_0::SimdFloatCmp            0      0.00%     70.77% # Number of instructions issued per FU type, per thread (Count)
system.cpu.statIssuedInstType_0::SimdFloatCvt            0      0.00%     70.77% # Number of instructions issued per FU type, per thread (Count)
system.cpu.statIssuedInstType_0::SimdFloatDiv            0      0.00%     70.77% # Number of instructions issued per FU type, per thread (Count)
system.cpu.statIssuedInstType_0::SimdFloatMisc            0      0.00%     70.77% # Number of instructions issued per FU type, per thread (Count)
system.cpu.statIssuedInstType_0::SimdFloatMult            0      0.00%     70.77% # Number of instructions issued per FU type, per thread (Count)
system.cpu.statIssuedInstType_0::SimdFloatMultAcc            0      0.00%     70.77% # Number of instructions issued per FU type, per thread (Count)
system.cpu.statIssuedInstType_0::SimdFloatSqrt            0      0.00%     70.77% # Number of instructions issued per FU type, per thread (Count)
system.cpu.statIssuedInstType_0::SimdReduceAdd            0      0.00%     70.77% # Number of instructions issued per FU type, per thread (Count)
system.cpu.statIssuedInstType_0::SimdReduceAlu            0      0.00%     70.77% # Number of instructions issued per FU type, per thread (Count)
system.cpu.statIssuedInstType_0::SimdReduceCmp            0      0.00%     70.77% # Number of instructions issued per FU type, per thread (Count)
system.cpu.statIssuedInstType_0::SimdFloatReduceAdd            0      0.00%     70.77% # Number of instructions issued per FU type, per thread (Count)
system.cpu.statIssuedInstType_0::SimdFloatReduceCmp            0      0.00%     70.77% # Number of instructions issued per FU type, per thread (Count)
system.cpu.statIssuedInstType_0::SimdAes            0      0.00%     70.77% # Number of instructions issued per FU type, per thread (Count)
system.cpu.statIssuedInstType_0::SimdAesMix            0      0.00%     70.77% # Number of instructions issued per FU type, per thread (Count)
system.cpu.statIssuedInstType_0::SimdSha1Hash            0      0.00%     70.77% # Number of instructions issued per FU type, per thread (Count)
system.cpu.statIssuedInstType_0::SimdSha1Hash2            0      0.00%     70.77% # Number of instructions issued per FU type, per thread (Count)
system.cpu.statIssuedInstType_0::SimdSha256Hash            0      0.00%     70.77% # Number of instructions issued per FU type, per thread (Count)
system.cpu.statIssuedInstType_0::SimdSha256Hash2            0      0.00%     70.77% # Number of instructions issued per FU type, per thread (Count)
system.cpu.statIssuedInstType_0::SimdShaSigma2            0      0.00%     70.77% # Number of instructions issued per FU type, per thread (Count)
system.cpu.statIssuedInstType_0::SimdShaSigma3            0      0.00%     70.77% # Number of instructions issued per FU type, per thread (Count)
system.cpu.statIssuedInstType_0::SimdPredAlu            0      0.00%     70.77% # Number of instructions issued per FU type, per thread (Count)
system.cpu.statIssuedInstType_0::MemRead      7294268     17.34%     88.12% # Number of instructions issued per FU type, per thread (Count)
system.cpu.statIssuedInstType_0::MemWrite      4324462     10.28%     98.40% # Number of instructions issued per FU type, per thread (Count)
system.cpu.statIssuedInstType_0::FloatMemRead       381739      0.91%     99.31% # Number of instructions issued per FU type, per thread (Count)
system.cpu.statIssuedInstType_0::FloatMemWrite       290839      0.69%    100.00% # Number of instructions issued per FU type, per thread (Count)
system.cpu.statIssuedInstType_0::IprAccess            0      0.00%    100.00% # Number of instructions issued per FU type, per thread (Count)
system.cpu.statIssuedInstType_0::InstPrefetch            0      0.00%    100.00% # Number of instructions issued per FU type, per thread (Count)
system.cpu.statIssuedInstType_0::total       42054172                       # Number of instructions issued per FU type, per thread (Count)
system.cpu.issueRate                         2.190584                       # Inst issue rate ((Count/Cycle))
system.cpu.fuBusy                             1304156                       # FU busy when requested (Count)
system.cpu.fuBusyRate                        0.031011                       # FU busy rate (busy events/executed inst) ((Count/Count))
system.cpu.intInstQueueReads                101661754                       # Number of integer instruction queue reads (Count)
system.cpu.intInstQueueWrites                45196352                       # Number of integer instruction queue writes (Count)
system.cpu.intInstQueueWakeupAccesses        40608830                       # Number of integer instruction queue wakeup accesses (Count)
system.cpu.fpInstQueueReads                   2115416                       # Number of floating instruction queue reads (Count)
system.cpu.fpInstQueueWrites                  1047652                       # Number of floating instruction queue writes (Count)
system.cpu.fpInstQueueWakeupAccesses           995350                       # Number of floating instruction queue wakeup accesses (Count)
system.cpu.vecInstQueueReads                        0                       # Number of vector instruction queue reads (Count)
system.cpu.vecInstQueueWrites                       0                       # Number of vector instruction queue writes (Count)
system.cpu.vecInstQueueWakeupAccesses               0                       # Number of vector instruction queue wakeup accesses (Count)
system.cpu.intAluAccesses                    42222697                       # Number of integer alu accesses (Count)
system.cpu.fpAluAccesses                      1106888                       # Number of floating point alu accesses (Count)
system.cpu.vecAluAccesses                           0                       # Number of vector alu accesses (Count)
system.cpu.numInsts                          41748124                       # Number of executed instructions (Count)
system.cpu.numLoadInsts                       7579714                       # Number of load instructions executed (Count)
system.cpu.numSquashedInsts                    306048                       # Number of squashed instructions skipped in execute (Count)
system.cpu.numSwp                                   0                       # Number of swp insts executed (Count)
system.cpu.numNop                                   0                       # Number of nop insts executed (Count)
system.cpu.numRefs                           12178632                       # Number of memory reference insts executed (Count)
system.cpu.numBranches                        8718906                       # Number of branches executed (Count)
system.cpu.numStoreInsts                      4598918                       # Number of stores executed (Count)
system.cpu.numRate                           2.174642                       # Inst execution rate ((Count/Cycle))
system.cpu.timesIdled                           43511                       # Number of times that the entire CPU went into an idle state and unscheduled itself (Count)
system.cpu.idleCycles                          895723                       # Total number of cycles that the CPU has spent unscheduled due to idling (Cycle)
system.cpu.committedInsts                    39561848                       # Number of Instructions Simulated (Count)
system.cpu.committedOps                      39561863                       # Number of Ops (including micro ops) Simulated (Count)
system.cpu.cpi                               0.485258                       # CPI: Cycles Per Instruction ((Cycle/Count))
system.cpu.totalCpi                          0.485258                       # CPI: Total CPI of All Threads ((Cycle/Count))
system.cpu.ipc                               2.060760                       # IPC: Instructions Per Cycle ((Count/Cycle))
system.cpu.totalIpc                          2.060760                       # IPC: Total IPC of All Threads ((Count/Cycle))
system.cpu.intRegfileReads                   52659628                       # Number of integer regfile reads (Count)
system.cpu.intRegfileWrites                  28342820                       # Number of integer regfile writes (Count)
system.cpu.fpRegfileReads                     1179671                       # Number of floating regfile reads (Count)
system.cpu.fpRegfileWrites                     686913                       # Number of floating regfile writes (Count)
system.cpu.miscRegfileReads                   1624939                       # number of misc regfile reads (Count)
system.cpu.miscRegfileWrites                   335872                       # number of misc regfile writes (Count)
system.cpu.MemDepUnit__0.insertedLoads        7756645                       # Number of loads inserted to the mem dependence unit. (Count)
system.cpu.MemDepUnit__0.insertedStores       4687873                       # Number of stores inserted to the mem dependence unit. (Count)
system.cpu.MemDepUnit__0.conflictingLoads       836594                       # Number of conflicting loads. (Count)
system.cpu.MemDepUnit__0.conflictingStores       300331                       # Number of conflicting stores. (Count)
system.cpu.MemDepUnit__1.insertedLoads              0                       # Number of loads inserted to the mem dependence unit. (Count)
system.cpu.MemDepUnit__1.insertedStores             0                       # Number of stores inserted to the mem dependence unit. (Count)
system.cpu.MemDepUnit__1.conflictingLoads            0                       # Number of conflicting loads. (Count)
system.cpu.MemDepUnit__1.conflictingStores            0                       # Number of conflicting stores. (Count)
system.cpu.MemDepUnit__2.insertedLoads              0                       # Number of loads inserted to the mem dependence unit. (Count)
system.cpu.MemDepUnit__2.insertedStores             0                       # Number of stores inserted to the mem dependence unit. (Count)
system.cpu.MemDepUnit__2.conflictingLoads            0                       # Number of conflicting loads. (Count)
system.cpu.MemDepUnit__2.conflictingStores            0                       # Number of conflicting stores. (Count)
system.cpu.MemDepUnit__3.insertedLoads              0                       # Number of loads inserted to the mem dependence unit. (Count)
system.cpu.MemDepUnit__3.insertedStores             0                       # Number of stores inserted to the mem dependence unit. (Count)
system.cpu.MemDepUnit__3.conflictingLoads            0                       # Number of conflicting loads. (Count)
system.cpu.MemDepUnit__3.conflictingStores            0                       # Number of conflicting stores. (Count)
system.cpu.branchPred.lookups                 9956820                       # Number of BP lookups (Count)
system.cpu.branchPred.condPredicted           7530966                       # Number of conditional branches predicted (Count)
system.cpu.branchPred.condIncorrect            188655                       # Number of conditional branches incorrect (Count)
system.cpu.branchPred.BTBLookups              5443229                       # Number of BTB lookups (Count)
system.cpu.branchPred.BTBHits                 5418867                       # Number of BTB hits (Count)
system.cpu.branchPred.BTBHitRatio            0.995524                       # BTB Hit Ratio (Ratio)
system.cpu.branchPred.RASUsed                       0                       # Number of times the RAS was used to get a target. (Count)
system.cpu.branchPred.RASIncorrect                  0                       # Number of incorrect RAS predictions. (Count)
system.cpu.branchPred.indirectLookups          592785                       # Number of indirect predictor lookups. (Count)
system.cpu.branchPred.indirectHits             590849                       # Number of indirect target hits. (Count)
system.cpu.branchPred.indirectMisses             1936                       # Number of indirect misses. (Count)
system.cpu.branchPred.indirectMispredicted        19904                       # Number of mispredicted indirect branches. (Count)
system.cpu.commit.commitSquashedInsts         3340447                       # The number of squashed insts skipped by commit (Count)
system.cpu.commit.commitNonSpecStalls           28748                       # The number of times commit has been forced to stall to communicate backwards (Count)
system.cpu.commit.branchMispredicts            176307                       # The number of times a branch was mispredicted (Count)
system.cpu.commit.numCommittedDist::samples     17783153                       # Number of insts commited each cycle (Count)
system.cpu.commit.numCommittedDist::mean     2.224682                       # Number of insts commited each cycle (Count)
system.cpu.commit.numCommittedDist::stdev     2.790147                       # Number of insts commited each cycle (Count)
system.cpu.commit.numCommittedDist::underflows            0      0.00%      0.00% # Number of insts commited each cycle (Count)
system.cpu.commit.numCommittedDist::0         7305465     41.08%     41.08% # Number of insts commited each cycle (Count)
system.cpu.commit.numCommittedDist::1         3257367     18.32%     59.40% # Number of insts commited each cycle (Count)
system.cpu.commit.numCommittedDist::2         1565099      8.80%     68.20% # Number of insts commited each cycle (Count)
system.cpu.commit.numCommittedDist::3         1123835      6.32%     74.52% # Number of insts commited each cycle (Count)
system.cpu.commit.numCommittedDist::4          645337      3.63%     78.15% # Number of insts commited each cycle (Count)
system.cpu.commit.numCommittedDist::5          733380      4.12%     82.27% # Number of insts commited each cycle (Count)
system.cpu.commit.numCommittedDist::6          696068      3.91%     86.19% # Number of insts commited each cycle (Count)
system.cpu.commit.numCommittedDist::7          274679      1.54%     87.73% # Number of insts commited each cycle (Count)
system.cpu.commit.numCommittedDist::8         2181923     12.27%    100.00% # Number of insts commited each cycle (Count)
system.cpu.commit.numCommittedDist::overflows            0      0.00%    100.00% # Number of insts commited each cycle (Count)
system.cpu.commit.numCommittedDist::min_value            0                       # Number of insts commited each cycle (Count)
system.cpu.commit.numCommittedDist::max_value            8                       # Number of insts commited each cycle (Count)
system.cpu.commit.numCommittedDist::total     17783153                       # Number of insts commited each cycle (Count)
system.cpu.commit.instsCommitted             39561848                       # Number of instructions committed (Count)
system.cpu.commit.opsCommitted               39561863                       # Number of ops (including micro ops) committed (Count)
system.cpu.commit.memRefs                    11515197                       # Number of memory references committed (Count)
system.cpu.commit.loads                       7164559                       # Number of loads committed (Count)
system.cpu.commit.amos                             17                       # Number of atomic instructions committed (Count)
system.cpu.commit.membars                          25                       # Number of memory barriers committed (Count)
system.cpu.commit.branches                    8127089                       # Number of branches committed (Count)
system.cpu.commit.vectorInstructions                0                       # Number of committed Vector instructions. (Count)
system.cpu.commit.floating                     995348                       # Number of committed floating point instructions. (Count)
system.cpu.commit.integer                    38444128                       # Number of committed integer instructions. (Count)
system.cpu.commit.functionCalls               1174816                       # Number of function calls committed. (Count)
system.cpu.commit.committedInstType_0::No_OpClass        24601      0.06%      0.06% # Class of committed instruction (Count)
system.cpu.commit.committedInstType_0::IntAlu     26890436     67.97%     68.03% # Class of committed instruction (Count)
system.cpu.commit.committedInstType_0::IntMult       479462      1.21%     69.24% # Class of committed instruction (Count)
system.cpu.commit.committedInstType_0::IntDiv       316295      0.80%     70.04% # Class of committed instruction (Count)
system.cpu.commit.committedInstType_0::FloatAdd        16384      0.04%     70.09% # Class of committed instruction (Count)
system.cpu.commit.committedInstType_0::FloatCmp        16384      0.04%     70.13% # Class of committed instruction (Count)
system.cpu.commit.committedInstType_0::FloatCvt        24576      0.06%     70.19% # Class of committed instruction (Count)
system.cpu.commit.committedInstType_0::FloatMult            0      0.00%     70.19% # Class of committed instruction (Count)
system.cpu.commit.committedInstType_0::FloatMultAcc       262144      0.66%     70.85% # Class of committed instruction (Count)
system.cpu.commit.committedInstType_0::FloatDiv            0      0.00%     70.85% # Class of committed instruction (Count)
system.cpu.commit.committedInstType_0::FloatMisc        16384      0.04%     70.89% # Class of committed instruction (Count)
system.cpu.commit.committedInstType_0::FloatSqrt            0      0.00%     70.89% # Class of committed instruction (Count)
system.cpu.commit.committedInstType_0::SimdAdd            0      0.00%     70.89% # Class of committed instruction (Count)
system.cpu.commit.committedInstType_0::SimdAddAcc            0      0.00%     70.89% # Class of committed instruction (Count)
system.cpu.commit.committedInstType_0::SimdAlu            0      0.00%     70.89% # Class of committed instruction (Count)
system.cpu.commit.committedInstType_0::SimdCmp            0      0.00%     70.89% # Class of committed instruction (Count)
system.cpu.commit.committedInstType_0::SimdCvt            0      0.00%     70.89% # Class of committed instruction (Count)
system.cpu.commit.committedInstType_0::SimdMisc            0      0.00%     70.89% # Class of committed instruction (Count)
system.cpu.commit.committedInstType_0::SimdMult            0      0.00%     70.89% # Class of committed instruction (Count)
system.cpu.commit.committedInstType_0::SimdMultAcc            0      0.00%     70.89% # Class of committed instruction (Count)
system.cpu.commit.committedInstType_0::SimdShift            0      0.00%     70.89% # Class of committed instruction (Count)
system.cpu.commit.committedInstType_0::SimdShiftAcc            0      0.00%     70.89% # Class of committed instruction (Count)
system.cpu.commit.committedInstType_0::SimdDiv            0      0.00%     70.89% # Class of committed instruction (Count)
system.cpu.commit.committedInstType_0::SimdSqrt            0      0.00%     70.89% # Class of committed instruction (Count)
system.cpu.commit.committedInstType_0::SimdFloatAdd            0      0.00%     70.89% # Class of committed instruction (Count)
system.cpu.commit.committedInstType_0::SimdFloatAlu            0      0.00%     70.89% # Class of committed instruction (Count)
system.cpu.commit.committedInstType_0::SimdFloatCmp            0      0.00%     70.89% # Class of committed instruction (Count)
system.cpu.commit.committedInstType_0::SimdFloatCvt            0      0.00%     70.89% # Class of committed instruction (Count)
system.cpu.commit.committedInstType_0::SimdFloatDiv            0      0.00%     70.89% # Class of committed instruction (Count)
system.cpu.commit.committedInstType_0::SimdFloatMisc            0      0.00%     70.89% # Class of committed instruction (Count)
system.cpu.commit.committedInstType_0::SimdFloatMult            0      0.00%     70.89% # Class of committed instruction (Count)
system.cpu.commit.committedInstType_0::SimdFloatMultAcc            0      0.00%     70.89% # Class of committed instruction (Count)
system.cpu.commit.committedInstType_0::SimdFloatSqrt            0      0.00%     70.89% # Class of committed instruction (Count)
system.cpu.commit.committedInstType_0::SimdReduceAdd            0      0.00%     70.89% # Class of committed instruction (Count)
system.cpu.commit.committedInstType_0::SimdReduceAlu            0      0.00%     70.89% # Class of committed instruction (Count)
system.cpu.commit.committedInstType_0::SimdReduceCmp            0      0.00%     70.89% # Class of committed instruction (Count)
system.cpu.commit.committedInstType_0::SimdFloatReduceAdd            0      0.00%     70.89% # Class of committed instruction (Count)
system.cpu.commit.committedInstType_0::SimdFloatReduceCmp            0      0.00%     70.89% # Class of committed instruction (Count)
system.cpu.commit.committedInstType_0::SimdAes            0      0.00%     70.89% # Class of committed instruction (Count)
system.cpu.commit.committedInstType_0::SimdAesMix            0      0.00%     70.89% # Class of committed instruction (Count)
system.cpu.commit.committedInstType_0::SimdSha1Hash            0      0.00%     70.89% # Class of committed instruction (Count)
system.cpu.commit.committedInstType_0::SimdSha1Hash2            0      0.00%     70.89% # Class of committed instruction (Count)
system.cpu.commit.committedInstType_0::SimdSha256Hash            0      0.00%     70.89% # Class of committed instruction (Count)
system.cpu.commit.committedInstType_0::SimdSha256Hash2            0      0.00%     70.89% # Class of committed instruction (Count)
system.cpu.commit.committedInstType_0::SimdShaSigma2            0      0.00%     70.89% # Class of committed instruction (Count)
system.cpu.commit.committedInstType_0::SimdShaSigma3            0      0.00%     70.89% # Class of committed instruction (Count)
system.cpu.commit.committedInstType_0::SimdPredAlu            0      0.00%     70.89% # Class of committed instruction (Count)
system.cpu.commit.committedInstType_0::MemRead      6795931     17.18%     88.07% # Class of committed instruction (Count)
system.cpu.commit.committedInstType_0::MemWrite      4059790     10.26%     98.33% # Class of committed instruction (Count)
system.cpu.commit.committedInstType_0::FloatMemRead       368645      0.93%     99.26% # Class of committed instruction (Count)
system.cpu.commit.committedInstType_0::FloatMemWrite       290831      0.74%    100.00% # Class of committed instruction (Count)
system.cpu.commit.committedInstType_0::IprAccess            0      0.00%    100.00% # Class of committed instruction (Count)
system.cpu.commit.committedInstType_0::InstPrefetch            0      0.00%    100.00% # Class of committed instruction (Count)
system.cpu.commit.committedInstType_0::total     39561863                       # Class of committed instruction (Count)
system.cpu.commit.commitEligibleSamples       2181923                       # number cycles where commit BW limit reached (Cycle)
system.cpu.dcache.demandHits::cpu.data       10605260                       # number of demand (read+write) hits (Count)
system.cpu.dcache.demandHits::total          10605260                       # number of demand (read+write) hits (Count)
system.cpu.dcache.overallHits::cpu.data      10605260                       # number of overall hits (Count)
system.cpu.dcache.overallHits::total         10605260                       # number of overall hits (Count)
system.cpu.dcache.demandMisses::cpu.data        38028                       # number of demand (read+write) misses (Count)
system.cpu.dcache.demandMisses::total           38028                       # number of demand (read+write) misses (Count)
system.cpu.dcache.overallMisses::cpu.data        38028                       # number of overall misses (Count)
system.cpu.dcache.overallMisses::total          38028                       # number of overall misses (Count)
system.cpu.dcache.demandMissLatency::cpu.data   2148767987                       # number of demand (read+write) miss ticks (Tick)
system.cpu.dcache.demandMissLatency::total   2148767987                       # number of demand (read+write) miss ticks (Tick)
system.cpu.dcache.overallMissLatency::cpu.data   2148767987                       # number of overall miss ticks (Tick)
system.cpu.dcache.overallMissLatency::total   2148767987                       # number of overall miss ticks (Tick)
system.cpu.dcache.demandAccesses::cpu.data     10643288                       # number of demand (read+write) accesses (Count)
system.cpu.dcache.demandAccesses::total      10643288                       # number of demand (read+write) accesses (Count)
system.cpu.dcache.overallAccesses::cpu.data     10643288                       # number of overall (read+write) accesses (Count)
system.cpu.dcache.overallAccesses::total     10643288                       # number of overall (read+write) accesses (Count)
system.cpu.dcache.demandMissRate::cpu.data     0.003573                       # miss rate for demand accesses (Ratio)
system.cpu.dcache.demandMissRate::total      0.003573                       # miss rate for demand accesses (Ratio)
system.cpu.dcache.overallMissRate::cpu.data     0.003573                       # miss rate for overall accesses (Ratio)
system.cpu.dcache.overallMissRate::total     0.003573                       # miss rate for overall accesses (Ratio)
system.cpu.dcache.demandAvgMissLatency::cpu.data 56504.890791                       # average overall miss latency ((Cycle/Count))
system.cpu.dcache.demandAvgMissLatency::total 56504.890791                       # average overall miss latency ((Cycle/Count))
system.cpu.dcache.overallAvgMissLatency::cpu.data 56504.890791                       # average overall miss latency ((Cycle/Count))
system.cpu.dcache.overallAvgMissLatency::total 56504.890791                       # average overall miss latency ((Cycle/Count))
system.cpu.dcache.blockedCycles::no_mshrs        30785                       # number of cycles access was blocked (Cycle)
system.cpu.dcache.blockedCycles::no_targets          310                       # number of cycles access was blocked (Cycle)
system.cpu.dcache.blockedCauses::no_mshrs         1207                       # number of times access was blocked (Count)
system.cpu.dcache.blockedCauses::no_targets            3                       # number of times access was blocked (Count)
system.cpu.dcache.avgBlocked::no_mshrs      25.505385                       # average number of cycles each access was blocked ((Cycle/Count))
system.cpu.dcache.avgBlocked::no_targets   103.333333                       # average number of cycles each access was blocked ((Cycle/Count))
system.cpu.dcache.writebacks::writebacks         1934                       # number of writebacks (Count)
system.cpu.dcache.writebacks::total              1934                       # number of writebacks (Count)
system.cpu.dcache.demandMshrHits::cpu.data        31974                       # number of demand (read+write) MSHR hits (Count)
system.cpu.dcache.demandMshrHits::total         31974                       # number of demand (read+write) MSHR hits (Count)
system.cpu.dcache.overallMshrHits::cpu.data        31974                       # number of overall MSHR hits (Count)
system.cpu.dcache.overallMshrHits::total        31974                       # number of overall MSHR hits (Count)
system.cpu.dcache.demandMshrMisses::cpu.data         6054                       # number of demand (read+write) MSHR misses (Count)
system.cpu.dcache.demandMshrMisses::total         6054                       # number of demand (read+write) MSHR misses (Count)
system.cpu.dcache.overallMshrMisses::cpu.data         6054                       # number of overall MSHR misses (Count)
system.cpu.dcache.overallMshrMisses::total         6054                       # number of overall MSHR misses (Count)
system.cpu.dcache.demandMshrMissLatency::cpu.data    351741000                       # number of demand (read+write) MSHR miss ticks (Tick)
system.cpu.dcache.demandMshrMissLatency::total    351741000                       # number of demand (read+write) MSHR miss ticks (Tick)
system.cpu.dcache.overallMshrMissLatency::cpu.data    351741000                       # number of overall MSHR miss ticks (Tick)
system.cpu.dcache.overallMshrMissLatency::total    351741000                       # number of overall MSHR miss ticks (Tick)
system.cpu.dcache.demandMshrMissRate::cpu.data     0.000569                       # mshr miss ratio for demand accesses (Ratio)
system.cpu.dcache.demandMshrMissRate::total     0.000569                       # mshr miss ratio for demand accesses (Ratio)
system.cpu.dcache.overallMshrMissRate::cpu.data     0.000569                       # mshr miss ratio for overall accesses (Ratio)
system.cpu.dcache.overallMshrMissRate::total     0.000569                       # mshr miss ratio for overall accesses (Ratio)
system.cpu.dcache.demandAvgMshrMissLatency::cpu.data 58100.594648                       # average overall mshr miss latency ((Cycle/Count))
system.cpu.dcache.demandAvgMshrMissLatency::total 58100.594648                       # average overall mshr miss latency ((Cycle/Count))
system.cpu.dcache.overallAvgMshrMissLatency::cpu.data 58100.594648                       # average overall mshr miss latency ((Cycle/Count))
system.cpu.dcache.overallAvgMshrMissLatency::total 58100.594648                       # average overall mshr miss latency ((Cycle/Count))
system.cpu.dcache.replacements                   1991                       # number of replacements (Count)
system.cpu.dcache.LoadLockedReq.hits::cpu.data           11                       # number of LoadLockedReq hits (Count)
system.cpu.dcache.LoadLockedReq.hits::total           11                       # number of LoadLockedReq hits (Count)
system.cpu.dcache.LoadLockedReq.misses::cpu.data            2                       # number of LoadLockedReq misses (Count)
system.cpu.dcache.LoadLockedReq.misses::total            2                       # number of LoadLockedReq misses (Count)
system.cpu.dcache.LoadLockedReq.missLatency::cpu.data       140000                       # number of LoadLockedReq miss ticks (Tick)
system.cpu.dcache.LoadLockedReq.missLatency::total       140000                       # number of LoadLockedReq miss ticks (Tick)
system.cpu.dcache.LoadLockedReq.accesses::cpu.data           13                       # number of LoadLockedReq accesses(hits+misses) (Count)
system.cpu.dcache.LoadLockedReq.accesses::total           13                       # number of LoadLockedReq accesses(hits+misses) (Count)
system.cpu.dcache.LoadLockedReq.missRate::cpu.data     0.153846                       # miss rate for LoadLockedReq accesses (Ratio)
system.cpu.dcache.LoadLockedReq.missRate::total     0.153846                       # miss rate for LoadLockedReq accesses (Ratio)
system.cpu.dcache.LoadLockedReq.avgMissLatency::cpu.data        70000                       # average LoadLockedReq miss latency ((Tick/Count))
system.cpu.dcache.LoadLockedReq.avgMissLatency::total        70000                       # average LoadLockedReq miss latency ((Tick/Count))
system.cpu.dcache.LoadLockedReq.mshrMisses::cpu.data            2                       # number of LoadLockedReq MSHR misses (Count)
system.cpu.dcache.LoadLockedReq.mshrMisses::total            2                       # number of LoadLockedReq MSHR misses (Count)
system.cpu.dcache.LoadLockedReq.mshrMissLatency::cpu.data       138000                       # number of LoadLockedReq MSHR miss ticks (Tick)
system.cpu.dcache.LoadLockedReq.mshrMissLatency::total       138000                       # number of LoadLockedReq MSHR miss ticks (Tick)
system.cpu.dcache.LoadLockedReq.mshrMissRate::cpu.data     0.153846                       # mshr miss rate for LoadLockedReq accesses (Ratio)
system.cpu.dcache.LoadLockedReq.mshrMissRate::total     0.153846                       # mshr miss rate for LoadLockedReq accesses (Ratio)
system.cpu.dcache.LoadLockedReq.avgMshrMissLatency::cpu.data        69000                       # average LoadLockedReq mshr miss latency ((Tick/Count))
system.cpu.dcache.LoadLockedReq.avgMshrMissLatency::total        69000                       # average LoadLockedReq mshr miss latency ((Tick/Count))
system.cpu.dcache.ReadReq.hits::cpu.data      6267988                       # number of ReadReq hits (Count)
system.cpu.dcache.ReadReq.hits::total         6267988                       # number of ReadReq hits (Count)
system.cpu.dcache.ReadReq.misses::cpu.data        24688                       # number of ReadReq misses (Count)
system.cpu.dcache.ReadReq.misses::total         24688                       # number of ReadReq misses (Count)
system.cpu.dcache.ReadReq.missLatency::cpu.data   1494683500                       # number of ReadReq miss ticks (Tick)
system.cpu.dcache.ReadReq.missLatency::total   1494683500                       # number of ReadReq miss ticks (Tick)
system.cpu.dcache.ReadReq.accesses::cpu.data      6292676                       # number of ReadReq accesses(hits+misses) (Count)
system.cpu.dcache.ReadReq.accesses::total      6292676                       # number of ReadReq accesses(hits+misses) (Count)
system.cpu.dcache.ReadReq.missRate::cpu.data     0.003923                       # miss rate for ReadReq accesses (Ratio)
system.cpu.dcache.ReadReq.missRate::total     0.003923                       # miss rate for ReadReq accesses (Ratio)
system.cpu.dcache.ReadReq.avgMissLatency::cpu.data 60542.915587                       # average ReadReq miss latency ((Tick/Count))
system.cpu.dcache.ReadReq.avgMissLatency::total 60542.915587                       # average ReadReq miss latency ((Tick/Count))
system.cpu.dcache.ReadReq.mshrHits::cpu.data        20797                       # number of ReadReq MSHR hits (Count)
system.cpu.dcache.ReadReq.mshrHits::total        20797                       # number of ReadReq MSHR hits (Count)
system.cpu.dcache.ReadReq.mshrMisses::cpu.data         3891                       # number of ReadReq MSHR misses (Count)
system.cpu.dcache.ReadReq.mshrMisses::total         3891                       # number of ReadReq MSHR misses (Count)
system.cpu.dcache.ReadReq.mshrMissLatency::cpu.data    229006000                       # number of ReadReq MSHR miss ticks (Tick)
system.cpu.dcache.ReadReq.mshrMissLatency::total    229006000                       # number of ReadReq MSHR miss ticks (Tick)
system.cpu.dcache.ReadReq.mshrMissRate::cpu.data     0.000618                       # mshr miss rate for ReadReq accesses (Ratio)
system.cpu.dcache.ReadReq.mshrMissRate::total     0.000618                       # mshr miss rate for ReadReq accesses (Ratio)
system.cpu.dcache.ReadReq.avgMshrMissLatency::cpu.data 58855.307119                       # average ReadReq mshr miss latency ((Tick/Count))
system.cpu.dcache.ReadReq.avgMshrMissLatency::total 58855.307119                       # average ReadReq mshr miss latency ((Tick/Count))
system.cpu.dcache.StoreCondReq.hits::cpu.data            9                       # number of StoreCondReq hits (Count)
system.cpu.dcache.StoreCondReq.hits::total            9                       # number of StoreCondReq hits (Count)
system.cpu.dcache.StoreCondReq.accesses::cpu.data            9                       # number of StoreCondReq accesses(hits+misses) (Count)
system.cpu.dcache.StoreCondReq.accesses::total            9                       # number of StoreCondReq accesses(hits+misses) (Count)
system.cpu.dcache.SwapReq.hits::cpu.data           16                       # number of SwapReq hits (Count)
system.cpu.dcache.SwapReq.hits::total              16                       # number of SwapReq hits (Count)
system.cpu.dcache.SwapReq.misses::cpu.data            1                       # number of SwapReq misses (Count)
system.cpu.dcache.SwapReq.misses::total             1                       # number of SwapReq misses (Count)
system.cpu.dcache.SwapReq.missLatency::cpu.data        62000                       # number of SwapReq miss ticks (Tick)
system.cpu.dcache.SwapReq.missLatency::total        62000                       # number of SwapReq miss ticks (Tick)
system.cpu.dcache.SwapReq.accesses::cpu.data           17                       # number of SwapReq accesses(hits+misses) (Count)
system.cpu.dcache.SwapReq.accesses::total           17                       # number of SwapReq accesses(hits+misses) (Count)
system.cpu.dcache.SwapReq.missRate::cpu.data     0.058824                       # miss rate for SwapReq accesses (Ratio)
system.cpu.dcache.SwapReq.missRate::total     0.058824                       # miss rate for SwapReq accesses (Ratio)
system.cpu.dcache.SwapReq.avgMissLatency::cpu.data        62000                       # average SwapReq miss latency ((Tick/Count))
system.cpu.dcache.SwapReq.avgMissLatency::total        62000                       # average SwapReq miss latency ((Tick/Count))
system.cpu.dcache.SwapReq.mshrMisses::cpu.data            1                       # number of SwapReq MSHR misses (Count)
system.cpu.dcache.SwapReq.mshrMisses::total            1                       # number of SwapReq MSHR misses (Count)
system.cpu.dcache.SwapReq.mshrMissLatency::cpu.data        61000                       # number of SwapReq MSHR miss ticks (Tick)
system.cpu.dcache.SwapReq.mshrMissLatency::total        61000                       # number of SwapReq MSHR miss ticks (Tick)
system.cpu.dcache.SwapReq.mshrMissRate::cpu.data     0.058824                       # mshr miss rate for SwapReq accesses (Ratio)
system.cpu.dcache.SwapReq.mshrMissRate::total     0.058824                       # mshr miss rate for SwapReq accesses (Ratio)
system.cpu.dcache.SwapReq.avgMshrMissLatency::cpu.data        61000                       # average SwapReq mshr miss latency ((Tick/Count))
system.cpu.dcache.SwapReq.avgMshrMissLatency::total        61000                       # average SwapReq mshr miss latency ((Tick/Count))
system.cpu.dcache.WriteReq.hits::cpu.data      4337272                       # number of WriteReq hits (Count)
system.cpu.dcache.WriteReq.hits::total        4337272                       # number of WriteReq hits (Count)
system.cpu.dcache.WriteReq.misses::cpu.data        13340                       # number of WriteReq misses (Count)
system.cpu.dcache.WriteReq.misses::total        13340                       # number of WriteReq misses (Count)
system.cpu.dcache.WriteReq.missLatency::cpu.data    654084487                       # number of WriteReq miss ticks (Tick)
system.cpu.dcache.WriteReq.missLatency::total    654084487                       # number of WriteReq miss ticks (Tick)
system.cpu.dcache.WriteReq.accesses::cpu.data      4350612                       # number of WriteReq accesses(hits+misses) (Count)
system.cpu.dcache.WriteReq.accesses::total      4350612                       # number of WriteReq accesses(hits+misses) (Count)
system.cpu.dcache.WriteReq.missRate::cpu.data     0.003066                       # miss rate for WriteReq accesses (Ratio)
system.cpu.dcache.WriteReq.missRate::total     0.003066                       # miss rate for WriteReq accesses (Ratio)
system.cpu.dcache.WriteReq.avgMissLatency::cpu.data 49031.820615                       # average WriteReq miss latency ((Tick/Count))
system.cpu.dcache.WriteReq.avgMissLatency::total 49031.820615                       # average WriteReq miss latency ((Tick/Count))
system.cpu.dcache.WriteReq.mshrHits::cpu.data        11177                       # number of WriteReq MSHR hits (Count)
system.cpu.dcache.WriteReq.mshrHits::total        11177                       # number of WriteReq MSHR hits (Count)
system.cpu.dcache.WriteReq.mshrMisses::cpu.data         2163                       # number of WriteReq MSHR misses (Count)
system.cpu.dcache.WriteReq.mshrMisses::total         2163                       # number of WriteReq MSHR misses (Count)
system.cpu.dcache.WriteReq.mshrMissLatency::cpu.data    122735000                       # number of WriteReq MSHR miss ticks (Tick)
system.cpu.dcache.WriteReq.mshrMissLatency::total    122735000                       # number of WriteReq MSHR miss ticks (Tick)
system.cpu.dcache.WriteReq.mshrMissRate::cpu.data     0.000497                       # mshr miss rate for WriteReq accesses (Ratio)
system.cpu.dcache.WriteReq.mshrMissRate::total     0.000497                       # mshr miss rate for WriteReq accesses (Ratio)
system.cpu.dcache.WriteReq.avgMshrMissLatency::cpu.data 56742.949607                       # average WriteReq mshr miss latency ((Tick/Count))
system.cpu.dcache.WriteReq.avgMshrMissLatency::total 56742.949607                       # average WriteReq mshr miss latency ((Tick/Count))
system.cpu.dcache.power_state.pwrStateResidencyTicks::UNDEFINED   9598850000                       # Cumulative time (in ticks) in various power states (Tick)
system.cpu.dcache.tags.tagsInUse          3716.628612                       # Average ticks per tags in use ((Tick/Count))
system.cpu.dcache.tags.totalRefs             10611352                       # Total number of references to valid blocks. (Count)
system.cpu.dcache.tags.sampledRefs               6056                       # Sample count of references to valid blocks. (Count)
system.cpu.dcache.tags.avgRefs            1752.204756                       # Average number of references to valid blocks. ((Count/Count))
system.cpu.dcache.tags.warmupTick              152000                       # The tick when the warmup percentage was hit. (Tick)
system.cpu.dcache.tags.occupancies::cpu.data  3716.628612                       # Average occupied blocks per tick, per requestor ((Count/Tick))
system.cpu.dcache.tags.avgOccs::cpu.data     0.907380                       # Average percentage of cache occupancy ((Ratio/Tick))
system.cpu.dcache.tags.avgOccs::total        0.907380                       # Average percentage of cache occupancy ((Ratio/Tick))
system.cpu.dcache.tags.occupanciesTaskId::1024         4065                       # Occupied blocks per task id (Count)
system.cpu.dcache.tags.ageTaskId_1024::0           34                       # Occupied blocks per task id, per block age (Count)
system.cpu.dcache.tags.ageTaskId_1024::1          121                       # Occupied blocks per task id, per block age (Count)
system.cpu.dcache.tags.ageTaskId_1024::2         1259                       # Occupied blocks per task id, per block age (Count)
system.cpu.dcache.tags.ageTaskId_1024::3         2651                       # Occupied blocks per task id, per block age (Count)
system.cpu.dcache.tags.ratioOccsTaskId::1024     0.992432                       # Ratio of occupied blocks and all blocks, per task id (Ratio)
system.cpu.dcache.tags.tagAccesses           21292710                       # Number of tag accesses (Count)
system.cpu.dcache.tags.dataAccesses          21292710                       # Number of data accesses (Count)
system.cpu.dcache.tags.power_state.pwrStateResidencyTicks::UNDEFINED   9598850000                       # Cumulative time (in ticks) in various power states (Tick)
system.cpu.decode.idleCycles                  6271385                       # Number of cycles decode is idle (Cycle)
system.cpu.decode.blockedCycles               2930015                       # Number of cycles decode is blocked (Cycle)
system.cpu.decode.runCycles                   8417468                       # Number of cycles decode is running (Cycle)
system.cpu.decode.unblockCycles                502318                       # Number of cycles decode is unblocking (Cycle)
system.cpu.decode.squashCycles                 180792                       # Number of cycles decode is squashing (Cycle)
system.cpu.decode.branchResolved              5259289                       # Number of times decode resolved a branch (Count)
system.cpu.decode.branchMispred                 12384                       # Number of times decode detected a branch misprediction (Count)
system.cpu.decode.decodedInsts               44698071                       # Number of instructions handled by decode (Count)
system.cpu.decode.squashedInsts                 27703                       # Number of squashed instructions handled by decode (Count)
system.cpu.dtb_walker_cache.blockedCycles::no_mshrs            0                       # number of cycles access was blocked (Cycle)
system.cpu.dtb_walker_cache.blockedCycles::no_targets            0                       # number of cycles access was blocked (Cycle)
system.cpu.dtb_walker_cache.blockedCauses::no_mshrs            0                       # number of times access was blocked (Count)
system.cpu.dtb_walker_cache.blockedCauses::no_targets            0                       # number of times access was blocked (Count)
system.cpu.dtb_walker_cache.avgBlocked::no_mshrs          nan                       # average number of cycles each access was blocked ((Cycle/Count))
system.cpu.dtb_walker_cache.avgBlocked::no_targets          nan                       # average number of cycles each access was blocked ((Cycle/Count))
system.cpu.dtb_walker_cache.replacements            0                       # number of replacements (Count)
system.cpu.dtb_walker_cache.power_state.pwrStateResidencyTicks::UNDEFINED   9598850000                       # Cumulative time (in ticks) in various power states (Tick)
system.cpu.dtb_walker_cache.tags.tagsInUse            0                       # Average ticks per tags in use ((Tick/Count))
system.cpu.dtb_walker_cache.tags.totalRefs            0                       # Total number of references to valid blocks. (Count)
system.cpu.dtb_walker_cache.tags.sampledRefs            0                       # Sample count of references to valid blocks. (Count)
system.cpu.dtb_walker_cache.tags.avgRefs          nan                       # Average number of references to valid blocks. ((Count/Count))
system.cpu.dtb_walker_cache.tags.warmupTick            0                       # The tick when the warmup percentage was hit. (Tick)
system.cpu.dtb_walker_cache.tags.tagAccesses            0                       # Number of tag accesses (Count)
system.cpu.dtb_walker_cache.tags.dataAccesses            0                       # Number of data accesses (Count)
system.cpu.dtb_walker_cache.tags.power_state.pwrStateResidencyTicks::UNDEFINED   9598850000                       # Cumulative time (in ticks) in various power states (Tick)
system.cpu.fetch.icacheStallCycles            7041641                       # Number of cycles fetch is stalled on an Icache miss (Cycle)
system.cpu.fetch.insts                       45876772                       # Number of instructions fetch has processed (Count)
system.cpu.fetch.branches                     9956820                       # Number of branches that fetch encountered (Count)
system.cpu.fetch.predictedBranches            6009716                       # Number of branches that fetch has predicted taken (Count)
system.cpu.fetch.cycles                      11066743                       # Number of cycles fetch has run and was not squashing or blocked (Cycle)
system.cpu.fetch.squashCycles                  386320                       # Number of cycles fetch has spent squashing (Cycle)
system.cpu.fetch.miscStallCycles                  245                       # Number of cycles fetch has spent waiting on interrupts, or bad addresses, or out of MSHRs (Cycle)
system.cpu.fetch.pendingTrapStallCycles           127                       # Number of stall cycles due to pending traps (Cycle)
system.cpu.fetch.icacheWaitRetryStallCycles           62                       # Number of stall cycles due to full MSHR (Cycle)
system.cpu.fetch.cacheLines                   5629131                       # Number of cache lines fetched (Count)
system.cpu.fetch.icacheSquashes                 66535                       # Number of outstanding Icache misses that were squashed (Count)
system.cpu.fetch.nisnDist::samples           18301978                       # Number of instructions fetched each cycle (Total) (Count)
system.cpu.fetch.nisnDist::mean              2.506660                       # Number of instructions fetched each cycle (Total) (Count)
system.cpu.fetch.nisnDist::stdev             2.964506                       # Number of instructions fetched each cycle (Total) (Count)
system.cpu.fetch.nisnDist::underflows               0      0.00%      0.00% # Number of instructions fetched each cycle (Total) (Count)
system.cpu.fetch.nisnDist::0                  8466606     46.26%     46.26% # Number of instructions fetched each cycle (Total) (Count)
system.cpu.fetch.nisnDist::1                  1337950      7.31%     53.57% # Number of instructions fetched each cycle (Total) (Count)
system.cpu.fetch.nisnDist::2                  1335717      7.30%     60.87% # Number of instructions fetched each cycle (Total) (Count)
system.cpu.fetch.nisnDist::3                  1043661      5.70%     66.57% # Number of instructions fetched each cycle (Total) (Count)
system.cpu.fetch.nisnDist::4                   918233      5.02%     71.59% # Number of instructions fetched each cycle (Total) (Count)
system.cpu.fetch.nisnDist::5                  1489067      8.14%     79.72% # Number of instructions fetched each cycle (Total) (Count)
system.cpu.fetch.nisnDist::6                   688601      3.76%     83.49% # Number of instructions fetched each cycle (Total) (Count)
system.cpu.fetch.nisnDist::7                   690539      3.77%     87.26% # Number of instructions fetched each cycle (Total) (Count)
system.cpu.fetch.nisnDist::8                  2331604     12.74%    100.00% # Number of instructions fetched each cycle (Total) (Count)
system.cpu.fetch.nisnDist::overflows                0      0.00%    100.00% # Number of instructions fetched each cycle (Total) (Count)
system.cpu.fetch.nisnDist::min_value                0                       # Number of instructions fetched each cycle (Total) (Count)
system.cpu.fetch.nisnDist::max_value                8                       # Number of instructions fetched each cycle (Total) (Count)
system.cpu.fetch.nisnDist::total             18301978                       # Number of instructions fetched each cycle (Total) (Count)
system.cpu.fetch.branchRate                  0.518646                       # Number of branch fetches per cycle (Ratio)
system.cpu.fetch.rate                        2.389701                       # Number of inst fetches per cycle ((Count/Cycle))
system.cpu.icache.demandHits::cpu.inst        5577717                       # number of demand (read+write) hits (Count)
system.cpu.icache.demandHits::total           5577717                       # number of demand (read+write) hits (Count)
system.cpu.icache.overallHits::cpu.inst       5577717                       # number of overall hits (Count)
system.cpu.icache.overallHits::total          5577717                       # number of overall hits (Count)
system.cpu.icache.demandMisses::cpu.inst        51411                       # number of demand (read+write) misses (Count)
system.cpu.icache.demandMisses::total           51411                       # number of demand (read+write) misses (Count)
system.cpu.icache.overallMisses::cpu.inst        51411                       # number of overall misses (Count)
system.cpu.icache.overallMisses::total          51411                       # number of overall misses (Count)
system.cpu.icache.demandMissLatency::cpu.inst   1219675499                       # number of demand (read+write) miss ticks (Tick)
system.cpu.icache.demandMissLatency::total   1219675499                       # number of demand (read+write) miss ticks (Tick)
system.cpu.icache.overallMissLatency::cpu.inst   1219675499                       # number of overall miss ticks (Tick)
system.cpu.icache.overallMissLatency::total   1219675499                       # number of overall miss ticks (Tick)
system.cpu.icache.demandAccesses::cpu.inst      5629128                       # number of demand (read+write) accesses (Count)
system.cpu.icache.demandAccesses::total       5629128                       # number of demand (read+write) accesses (Count)
system.cpu.icache.overallAccesses::cpu.inst      5629128                       # number of overall (read+write) accesses (Count)
system.cpu.icache.overallAccesses::total      5629128                       # number of overall (read+write) accesses (Count)
system.cpu.icache.demandMissRate::cpu.inst     0.009133                       # miss rate for demand accesses (Ratio)
system.cpu.icache.demandMissRate::total      0.009133                       # miss rate for demand accesses (Ratio)
system.cpu.icache.overallMissRate::cpu.inst     0.009133                       # miss rate for overall accesses (Ratio)
system.cpu.icache.overallMissRate::total     0.009133                       # miss rate for overall accesses (Ratio)
system.cpu.icache.demandAvgMissLatency::cpu.inst 23724.018187                       # average overall miss latency ((Cycle/Count))
system.cpu.icache.demandAvgMissLatency::total 23724.018187                       # average overall miss latency ((Cycle/Count))
system.cpu.icache.overallAvgMissLatency::cpu.inst 23724.018187                       # average overall miss latency ((Cycle/Count))
system.cpu.icache.overallAvgMissLatency::total 23724.018187                       # average overall miss latency ((Cycle/Count))
system.cpu.icache.blockedCycles::no_mshrs         1160                       # number of cycles access was blocked (Cycle)
system.cpu.icache.blockedCycles::no_targets            0                       # number of cycles access was blocked (Cycle)
system.cpu.icache.blockedCauses::no_mshrs           26                       # number of times access was blocked (Count)
system.cpu.icache.blockedCauses::no_targets            0                       # number of times access was blocked (Count)
system.cpu.icache.avgBlocked::no_mshrs      44.615385                       # average number of cycles each access was blocked ((Cycle/Count))
system.cpu.icache.avgBlocked::no_targets          nan                       # average number of cycles each access was blocked ((Cycle/Count))
system.cpu.icache.writebacks::writebacks        49554                       # number of writebacks (Count)
system.cpu.icache.writebacks::total             49554                       # number of writebacks (Count)
system.cpu.icache.demandMshrHits::cpu.inst         1420                       # number of demand (read+write) MSHR hits (Count)
system.cpu.icache.demandMshrHits::total          1420                       # number of demand (read+write) MSHR hits (Count)
system.cpu.icache.overallMshrHits::cpu.inst         1420                       # number of overall MSHR hits (Count)
system.cpu.icache.overallMshrHits::total         1420                       # number of overall MSHR hits (Count)
system.cpu.icache.demandMshrMisses::cpu.inst        49991                       # number of demand (read+write) MSHR misses (Count)
system.cpu.icache.demandMshrMisses::total        49991                       # number of demand (read+write) MSHR misses (Count)
system.cpu.icache.overallMshrMisses::cpu.inst        49991                       # number of overall MSHR misses (Count)
system.cpu.icache.overallMshrMisses::total        49991                       # number of overall MSHR misses (Count)
system.cpu.icache.demandMshrMissLatency::cpu.inst   1143187000                       # number of demand (read+write) MSHR miss ticks (Tick)
system.cpu.icache.demandMshrMissLatency::total   1143187000                       # number of demand (read+write) MSHR miss ticks (Tick)
system.cpu.icache.overallMshrMissLatency::cpu.inst   1143187000                       # number of overall MSHR miss ticks (Tick)
system.cpu.icache.overallMshrMissLatency::total   1143187000                       # number of overall MSHR miss ticks (Tick)
system.cpu.icache.demandMshrMissRate::cpu.inst     0.008881                       # mshr miss ratio for demand accesses (Ratio)
system.cpu.icache.demandMshrMissRate::total     0.008881                       # mshr miss ratio for demand accesses (Ratio)
system.cpu.icache.overallMshrMissRate::cpu.inst     0.008881                       # mshr miss ratio for overall accesses (Ratio)
system.cpu.icache.overallMshrMissRate::total     0.008881                       # mshr miss ratio for overall accesses (Ratio)
system.cpu.icache.demandAvgMshrMissLatency::cpu.inst 22867.856214                       # average overall mshr miss latency ((Cycle/Count))
system.cpu.icache.demandAvgMshrMissLatency::total 22867.856214                       # average overall mshr miss latency ((Cycle/Count))
system.cpu.icache.overallAvgMshrMissLatency::cpu.inst 22867.856214                       # average overall mshr miss latency ((Cycle/Count))
system.cpu.icache.overallAvgMshrMissLatency::total 22867.856214                       # average overall mshr miss latency ((Cycle/Count))
system.cpu.icache.replacements                  49554                       # number of replacements (Count)
system.cpu.icache.ReadReq.hits::cpu.inst      5577717                       # number of ReadReq hits (Count)
system.cpu.icache.ReadReq.hits::total         5577717                       # number of ReadReq hits (Count)
system.cpu.icache.ReadReq.misses::cpu.inst        51411                       # number of ReadReq misses (Count)
system.cpu.icache.ReadReq.misses::total         51411                       # number of ReadReq misses (Count)
system.cpu.icache.ReadReq.missLatency::cpu.inst   1219675499                       # number of ReadReq miss ticks (Tick)
system.cpu.icache.ReadReq.missLatency::total   1219675499                       # number of ReadReq miss ticks (Tick)
system.cpu.icache.ReadReq.accesses::cpu.inst      5629128                       # number of ReadReq accesses(hits+misses) (Count)
system.cpu.icache.ReadReq.accesses::total      5629128                       # number of ReadReq accesses(hits+misses) (Count)
system.cpu.icache.ReadReq.missRate::cpu.inst     0.009133                       # miss rate for ReadReq accesses (Ratio)
system.cpu.icache.ReadReq.missRate::total     0.009133                       # miss rate for ReadReq accesses (Ratio)
system.cpu.icache.ReadReq.avgMissLatency::cpu.inst 23724.018187                       # average ReadReq miss latency ((Tick/Count))
system.cpu.icache.ReadReq.avgMissLatency::total 23724.018187                       # average ReadReq miss latency ((Tick/Count))
system.cpu.icache.ReadReq.mshrHits::cpu.inst         1420                       # number of ReadReq MSHR hits (Count)
system.cpu.icache.ReadReq.mshrHits::total         1420                       # number of ReadReq MSHR hits (Count)
system.cpu.icache.ReadReq.mshrMisses::cpu.inst        49991                       # number of ReadReq MSHR misses (Count)
system.cpu.icache.ReadReq.mshrMisses::total        49991                       # number of ReadReq MSHR misses (Count)
system.cpu.icache.ReadReq.mshrMissLatency::cpu.inst   1143187000                       # number of ReadReq MSHR miss ticks (Tick)
system.cpu.icache.ReadReq.mshrMissLatency::total   1143187000                       # number of ReadReq MSHR miss ticks (Tick)
system.cpu.icache.ReadReq.mshrMissRate::cpu.inst     0.008881                       # mshr miss rate for ReadReq accesses (Ratio)
system.cpu.icache.ReadReq.mshrMissRate::total     0.008881                       # mshr miss rate for ReadReq accesses (Ratio)
system.cpu.icache.ReadReq.avgMshrMissLatency::cpu.inst 22867.856214                       # average ReadReq mshr miss latency ((Tick/Count))
system.cpu.icache.ReadReq.avgMshrMissLatency::total 22867.856214                       # average ReadReq mshr miss latency ((Tick/Count))
system.cpu.icache.power_state.pwrStateResidencyTicks::UNDEFINED   9598850000                       # Cumulative time (in ticks) in various power states (Tick)
system.cpu.icache.tags.tagsInUse           372.584298                       # Average ticks per tags in use ((Tick/Count))
system.cpu.icache.tags.totalRefs              5627706                       # Total number of references to valid blocks. (Count)
system.cpu.icache.tags.sampledRefs              49989                       # Sample count of references to valid blocks. (Count)
system.cpu.icache.tags.avgRefs             112.578887                       # Average number of references to valid blocks. ((Count/Count))
system.cpu.icache.tags.warmupTick               77000                       # The tick when the warmup percentage was hit. (Tick)
system.cpu.icache.tags.occupancies::cpu.inst   372.584298                       # Average occupied blocks per tick, per requestor ((Count/Tick))
system.cpu.icache.tags.avgOccs::cpu.inst     0.727704                       # Average percentage of cache occupancy ((Ratio/Tick))
system.cpu.icache.tags.avgOccs::total        0.727704                       # Average percentage of cache occupancy ((Ratio/Tick))
system.cpu.icache.tags.occupanciesTaskId::1024          435                       # Occupied blocks per task id (Count)
system.cpu.icache.tags.ageTaskId_1024::0           99                       # Occupied blocks per task id, per block age (Count)
system.cpu.icache.tags.ageTaskId_1024::1           27                       # Occupied blocks per task id, per block age (Count)
system.cpu.icache.tags.ageTaskId_1024::2            1                       # Occupied blocks per task id, per block age (Count)
system.cpu.icache.tags.ageTaskId_1024::3          308                       # Occupied blocks per task id, per block age (Count)
system.cpu.icache.tags.ratioOccsTaskId::1024     0.849609                       # Ratio of occupied blocks and all blocks, per task id (Ratio)
system.cpu.icache.tags.tagAccesses           11308245                       # Number of tag accesses (Count)
system.cpu.icache.tags.dataAccesses          11308245                       # Number of data accesses (Count)
system.cpu.icache.tags.power_state.pwrStateResidencyTicks::UNDEFINED   9598850000                       # Cumulative time (in ticks) in various power states (Tick)
system.cpu.iew.idleCycles                           0                       # Number of cycles IEW is idle (Cycle)
system.cpu.iew.squashCycles                    180792                       # Number of cycles IEW is squashing (Cycle)
system.cpu.iew.blockCycles                     383965                       # Number of cycles IEW is blocking (Cycle)
system.cpu.iew.unblockCycles                    94966                       # Number of cycles IEW is unblocking (Cycle)
system.cpu.iew.dispatchedInsts               42902760                       # Number of instructions dispatched to IQ (Count)
system.cpu.iew.dispSquashedInsts               165256                       # Number of squashed instructions skipped by dispatch (Count)
system.cpu.iew.dispLoadInsts                  7756645                       # Number of dispatched load instructions (Count)
system.cpu.iew.dispStoreInsts                 4687873                       # Number of dispatched store instructions (Count)
system.cpu.iew.dispNonSpecInsts                 33250                       # Number of dispatched non-speculative instructions (Count)
system.cpu.iew.iqFullEvents                     53730                       # Number of times the IQ has become full, causing a stall (Count)
system.cpu.iew.lsqFullEvents                    31524                       # Number of times the LSQ has become full, causing a stall (Count)
system.cpu.iew.memOrderViolationEvents            361                       # Number of memory order violations (Count)
system.cpu.iew.predictedTakenIncorrect          80227                       # Number of branches that were predicted taken incorrectly (Count)
system.cpu.iew.predictedNotTakenIncorrect       115620                       # Number of branches that were predicted not taken incorrectly (Count)
system.cpu.iew.branchMispredicts               195847                       # Number of branch mispredicts detected at execute (Count)
system.cpu.iew.instsToCommit                 41663795                       # Cumulative count of insts sent to commit (Count)
system.cpu.iew.writebackCount                41604180                       # Cumulative count of insts written-back (Count)
[...]
system.mem_ctrls.dram.bwRead::total         373431401                       # Total read bandwidth from this memory ((Byte/Second))
system.mem_ctrls.dram.bwInstRead::cpu.inst    333299927                       # Instruction read bandwidth from this memory ((Byte/Second))
system.mem_ctrls.dram.bwInstRead::total     333299927                       # Instruction read bandwidth from this memory ((Byte/Second))
system.mem_ctrls.dram.bwWrite::writebacks     12894878                       # Write bandwidth from this memory ((Byte/Second))
system.mem_ctrls.dram.bwWrite::total         12894878                       # Write bandwidth from this memory ((Byte/Second))
system.mem_ctrls.dram.bwTotal::writebacks     12894878                       # Total bandwidth to/from this memory ((Byte/Second))
system.mem_ctrls.dram.bwTotal::cpu.inst     333299927                       # Total bandwidth to/from this memory ((Byte/Second))
system.mem_ctrls.dram.bwTotal::cpu.data      40131474                       # Total bandwidth to/from this memory ((Byte/Second))
system.mem_ctrls.dram.bwTotal::total        386326279                       # Total bandwidth to/from this memory ((Byte/Second))
system.mem_ctrls.dram.readBursts                 6832                       # Number of DRAM read bursts (Count)
system.mem_ctrls.dram.writeBursts                2337                       # Number of DRAM write bursts (Count)
system.mem_ctrls.dram.perBankRdBursts::0          430                       # Per bank write bursts (Count)
system.mem_ctrls.dram.perBankRdBursts::1          398                       # Per bank write bursts (Count)
system.mem_ctrls.dram.perBankRdBursts::2          502                       # Per bank write bursts (Count)
system.mem_ctrls.dram.perBankRdBursts::3          451                       # Per bank write bursts (Count)
system.mem_ctrls.dram.perBankRdBursts::4          463                       # Per bank write bursts (Count)
system.mem_ctrls.dram.perBankRdBursts::5          310                       # Per bank write bursts (Count)
system.mem_ctrls.dram.perBankRdBursts::6          412                       # Per bank write bursts (Count)
system.mem_ctrls.dram.perBankRdBursts::7          406                       # Per bank write bursts (Count)
system.mem_ctrls.dram.perBankRdBursts::8          422                       # Per bank write bursts (Count)
system.mem_ctrls.dram.perBankRdBursts::9          436                       # Per bank write bursts (Count)
system.mem_ctrls.dram.perBankRdBursts::10          449                       # Per bank write bursts (Count)
system.mem_ctrls.dram.perBankRdBursts::11          453                       # Per bank write bursts (Count)
system.mem_ctrls.dram.perBankRdBursts::12          455                       # Per bank write bursts (Count)
system.mem_ctrls.dram.perBankRdBursts::13          420                       # Per bank write bursts (Count)
system.mem_ctrls.dram.perBankRdBursts::14          408                       # Per bank write bursts (Count)
system.mem_ctrls.dram.perBankRdBursts::15          417                       # Per bank write bursts (Count)
system.mem_ctrls.dram.perBankWrBursts::0          128                       # Per bank write bursts (Count)
system.mem_ctrls.dram.perBankWrBursts::1          137                       # Per bank write bursts (Count)
system.mem_ctrls.dram.perBankWrBursts::2          209                       # Per bank write bursts (Count)
system.mem_ctrls.dram.perBankWrBursts::3          184                       # Per bank write bursts (Count)
system.mem_ctrls.dram.perBankWrBursts::4          132                       # Per bank write bursts (Count)
system.mem_ctrls.dram.perBankWrBursts::5           38                       # Per bank write bursts (Count)
system.mem_ctrls.dram.perBankWrBursts::6          154                       # Per bank write bursts (Count)
system.mem_ctrls.dram.perBankWrBursts::7          142                       # Per bank write bursts (Count)
system.mem_ctrls.dram.perBankWrBursts::8          146                       # Per bank write bursts (Count)
system.mem_ctrls.dram.perBankWrBursts::9          135                       # Per bank write bursts (Count)
system.mem_ctrls.dram.perBankWrBursts::10          159                       # Per bank write bursts (Count)
system.mem_ctrls.dram.perBankWrBursts::11          142                       # Per bank write bursts (Count)
system.mem_ctrls.dram.perBankWrBursts::12          182                       # Per bank write bursts (Count)
system.mem_ctrls.dram.perBankWrBursts::13          144                       # Per bank write bursts (Count)
system.mem_ctrls.dram.perBankWrBursts::14          149                       # Per bank write bursts (Count)
system.mem_ctrls.dram.perBankWrBursts::15          156                       # Per bank write bursts (Count)
system.mem_ctrls.dram.totQLat                58708250                       # Total ticks spent queuing (Tick)
system.mem_ctrls.dram.totBusLat              34160000                       # Total ticks spent in databus transfers (Tick)
system.mem_ctrls.dram.totMemAccLat          186808250                       # Total ticks spent from burst creation until serviced by the DRAM (Tick)
system.mem_ctrls.dram.avgQLat                 8593.13                       # Average queueing delay per DRAM burst ((Tick/Count))
system.mem_ctrls.dram.avgBusLat               5000.00                       # Average bus latency per DRAM burst ((Tick/Count))
system.mem_ctrls.dram.avgMemAccLat           27343.13                       # Average memory access latency per DRAM burst ((Tick/Count))
system.mem_ctrls.dram.readRowHits                5682                       # Number of row buffer hits during reads (Count)
system.mem_ctrls.dram.writeRowHits               1986                       # Number of row buffer hits during writes (Count)
system.mem_ctrls.dram.readRowHitRate            83.17                       # Row buffer hit rate for reads (Ratio)
system.mem_ctrls.dram.writeRowHitRate           84.98                       # Row buffer hit rate for writes (Ratio)
system.mem_ctrls.dram.bytesPerActivate::samples         1488                       # Bytes accessed per row activation (Byte)
system.mem_ctrls.dram.bytesPerActivate::mean   392.215054                       # Bytes accessed per row activation (Byte)
system.mem_ctrls.dram.bytesPerActivate::gmean   282.333961                       # Bytes accessed per row activation (Byte)
system.mem_ctrls.dram.bytesPerActivate::stdev   291.199365                       # Bytes accessed per row activation (Byte)
system.mem_ctrls.dram.bytesPerActivate::0-127          221     14.85%     14.85% # Bytes accessed per row activation (Byte)
system.mem_ctrls.dram.bytesPerActivate::128-255          391     26.28%     41.13% # Bytes accessed per row activation (Byte)
system.mem_ctrls.dram.bytesPerActivate::256-383          141      9.48%     50.60% # Bytes accessed per row activation (Byte)
system.mem_ctrls.dram.bytesPerActivate::384-511          135      9.07%     59.68% # Bytes accessed per row activation (Byte)
system.mem_ctrls.dram.bytesPerActivate::512-639          367     24.66%     84.34% # Bytes accessed per row activation (Byte)
system.mem_ctrls.dram.bytesPerActivate::640-767           40      2.69%     87.03% # Bytes accessed per row activation (Byte)
system.mem_ctrls.dram.bytesPerActivate::768-895           29      1.95%     88.98% # Bytes accessed per row activation (Byte)
system.mem_ctrls.dram.bytesPerActivate::896-1023            9      0.60%     89.58% # Bytes accessed per row activation (Byte)
system.mem_ctrls.dram.bytesPerActivate::1024-1151          155     10.42%    100.00% # Bytes accessed per row activation (Byte)
system.mem_ctrls.dram.bytesPerActivate::total         1488                       # Bytes accessed per row activation (Byte)
system.mem_ctrls.dram.bytesRead                437248                       # Total bytes read (Byte)
system.mem_ctrls.dram.bytesWritten             149568                       # Total bytes written (Byte)
system.mem_ctrls.dram.avgRdBW               45.552123                       # Average DRAM read bandwidth in MiBytes/s ((Byte/Second))
system.mem_ctrls.dram.avgWrBW               15.581867                       # Average DRAM write bandwidth in MiBytes/s ((Byte/Second))
system.mem_ctrls.dram.peakBW                 12800.00                       # Theoretical peak bandwidth in MiByte/s ((Byte/Second))
system.mem_ctrls.dram.busUtil                    0.48                       # Data bus utilization in percentage (Ratio)
system.mem_ctrls.dram.busUtilRead                0.36                       # Data bus utilization in percentage for reads (Ratio)
system.mem_ctrls.dram.busUtilWrite               0.12                       # Data bus utilization in percentage for writes (Ratio)
system.mem_ctrls.dram.pageHitRate               83.63                       # Row buffer hit rate, read and write combined (Ratio)
system.mem_ctrls.dram.power_state.pwrStateResidencyTicks::UNDEFINED   9598850000                       # Cumulative time (in ticks) in various power states (Tick)
system.mem_ctrls.dram.rank0.actEnergy         6218940                       # Energy for activate commands per rank (pJ) (Joule)
system.mem_ctrls.dram.rank0.preEnergy         3286470                       # Energy for precharge commands per rank (pJ) (Joule)
system.mem_ctrls.dram.rank0.readEnergy       24076080                       # Energy for read commands per rank (pJ) (Joule)
system.mem_ctrls.dram.rank0.writeEnergy       5867280                       # Energy for write commands per rank (pJ) (Joule)
system.mem_ctrls.dram.rank0.refreshEnergy 757236480.000000                       # Energy for refresh commands per rank (pJ) (Joule)
system.mem_ctrls.dram.rank0.actBackEnergy   1251807210                       # Energy for active background per rank (pJ) (Joule)
system.mem_ctrls.dram.rank0.preBackEnergy   2631804960                       # Energy for precharge background per rank (pJ) (Joule)
system.mem_ctrls.dram.rank0.actPowerDownEnergy            0                       # Energy for active power-down per rank (pJ) (Joule)
system.mem_ctrls.dram.rank0.prePowerDownEnergy            0                       # Energy for precharge power-down per rank (pJ) (Joule)
system.mem_ctrls.dram.rank0.selfRefreshEnergy            0                       # Energy for self refresh per rank (pJ) (Joule)
system.mem_ctrls.dram.rank0.totalEnergy    4680297420                       # Total energy per rank (pJ) (Joule)
system.mem_ctrls.dram.rank0.averagePower   487.589390                       # Core power per rank (mW) (Watt)
system.mem_ctrls.dram.rank0.totalIdleTime            0                       # Total Idle time Per DRAM Rank (Tick)
system.mem_ctrls.dram.rank0.pwrStateTime::IDLE   6830090750                       # Time in different power states (Tick)
system.mem_ctrls.dram.rank0.pwrStateTime::REF    320320000                       # Time in different power states (Tick)
system.mem_ctrls.dram.rank0.pwrStateTime::SREF            0                       # Time in different power states (Tick)
system.mem_ctrls.dram.rank0.pwrStateTime::PRE_PDN            0                       # Time in different power states (Tick)
system.mem_ctrls.dram.rank0.pwrStateTime::ACT   2448439250                       # Time in different power states (Tick)
system.mem_ctrls.dram.rank0.pwrStateTime::ACT_PDN            0                       # Time in different power states (Tick)
system.mem_ctrls.dram.rank1.actEnergy         4491060                       # Energy for activate commands per rank (pJ) (Joule)
system.mem_ctrls.dram.rank1.preEnergy         2360490                       # Energy for precharge commands per rank (pJ) (Joule)
system.mem_ctrls.dram.rank1.readEnergy       24690120                       # Energy for read commands per rank (pJ) (Joule)
system.mem_ctrls.dram.rank1.writeEnergy       6331860                       # Energy for write commands per rank (pJ) (Joule)
system.mem_ctrls.dram.rank1.refreshEnergy 757236480.000000                       # Energy for refresh commands per rank (pJ) (Joule)
system.mem_ctrls.dram.rank1.actBackEnergy   1037696970                       # Energy for active background per rank (pJ) (Joule)
system.mem_ctrls.dram.rank1.preBackEnergy   2812108320                       # Energy for precharge background per rank (pJ) (Joule)
system.mem_ctrls.dram.rank1.actPowerDownEnergy            0                       # Energy for active power-down per rank (pJ) (Joule)
system.mem_ctrls.dram.rank1.prePowerDownEnergy            0                       # Energy for precharge power-down per rank (pJ) (Joule)
system.mem_ctrls.dram.rank1.selfRefreshEnergy            0                       # Energy for self refresh per rank (pJ) (Joule)
system.mem_ctrls.dram.rank1.totalEnergy    4644915300                       # Total energy per rank (pJ) (Joule)
system.mem_ctrls.dram.rank1.averagePower   483.903311                       # Core power per rank (mW) (Watt)
system.mem_ctrls.dram.rank1.totalIdleTime            0                       # Total Idle time Per DRAM Rank (Tick)
system.mem_ctrls.dram.rank1.pwrStateTime::IDLE   7300456750                       # Time in different power states (Tick)
system.mem_ctrls.dram.rank1.pwrStateTime::REF    320320000                       # Time in different power states (Tick)
system.mem_ctrls.dram.rank1.pwrStateTime::SREF            0                       # Time in different power states (Tick)
system.mem_ctrls.dram.rank1.pwrStateTime::PRE_PDN            0                       # Time in different power states (Tick)
system.mem_ctrls.dram.rank1.pwrStateTime::ACT   1978073250                       # Time in different power states (Tick)
system.mem_ctrls.dram.rank1.pwrStateTime::ACT_PDN            0                       # Time in different power states (Tick)
system.mem_ctrls.power_state.pwrStateResidencyTicks::UNDEFINED   9598850000                       # Cumulative time (in ticks) in various power states (Tick)
system.membus.transDist::ReadResp               53881                       # Transaction distribution (Count)
system.membus.transDist::WritebackDirty          1934                       # Transaction distribution (Count)
system.membus.transDist::WritebackClean         49554                       # Transaction distribution (Count)
system.membus.transDist::CleanEvict                57                       # Transaction distribution (Count)
system.membus.transDist::ReadExReq               2126                       # Transaction distribution (Count)
system.membus.transDist::ReadExResp              2126                       # Transaction distribution (Count)
system.membus.transDist::ReadCleanReq           49991                       # Transaction distribution (Count)
system.membus.transDist::ReadSharedReq           3893                       # Transaction distribution (Count)
system.membus.transDist::InvalidateReq             38                       # Transaction distribution (Count)
system.membus.pktCount_system.cpu.icache.mem_side_port::system.mem_ctrls.port       149534                       # Packet count per connected requestor and responder (Count)
system.membus.pktCount_system.cpu.dcache.mem_side_port::system.mem_ctrls.port        14066                       # Packet count per connected requestor and responder (Count)
system.membus.pktCount::total                  163600                       # Packet count per connected requestor and responder (Count)
system.membus.pktSize_system.cpu.icache.mem_side_port::system.mem_ctrls.port      6370752                       # Cumulative packet size per connected requestor and responder (Byte)
system.membus.pktSize_system.cpu.dcache.mem_side_port::system.mem_ctrls.port       508928                       # Cumulative packet size per connected requestor and responder (Byte)
system.membus.pktSize::total                  6879680                       # Cumulative packet size per connected requestor and responder (Byte)
system.membus.snoops                                0                       # Total snoops (Count)
system.membus.snoopTraffic                          0                       # Total snoop traffic (Byte)
system.membus.snoopFanout::samples              56048                       # Request fanout histogram (Count)
system.membus.snoopFanout::mean              0.000036                       # Request fanout histogram (Count)
system.membus.snoopFanout::stdev             0.005974                       # Request fanout histogram (Count)
system.membus.snoopFanout::underflows               0      0.00%      0.00% # Request fanout histogram (Count)
system.membus.snoopFanout::0                    56046    100.00%    100.00% # Request fanout histogram (Count)
system.membus.snoopFanout::1                        2      0.00%    100.00% # Request fanout histogram (Count)
system.membus.snoopFanout::2                        0      0.00%    100.00% # Request fanout histogram (Count)
system.membus.snoopFanout::3                        0      0.00%    100.00% # Request fanout histogram (Count)
system.membus.snoopFanout::4                        0      0.00%    100.00% # Request fanout histogram (Count)
system.membus.snoopFanout::overflows                0      0.00%    100.00% # Request fanout histogram (Count)
system.membus.snoopFanout::min_value                0                       # Request fanout histogram (Count)
system.membus.snoopFanout::max_value                1                       # Request fanout histogram (Count)
system.membus.snoopFanout::total                56048                       # Request fanout histogram (Count)
system.membus.power_state.pwrStateResidencyTicks::UNDEFINED   9598850000                       # Cumulative time (in ticks) in various power states (Tick)
system.membus.reqLayer0.occupancy           325165000                       # Layer occupancy (ticks) (Tick)
system.membus.reqLayer0.utilization               0.0                       # Layer utilization (Ratio)
system.membus.respLayer1.occupancy          250182500                       # Layer occupancy (ticks) (Tick)
system.membus.respLayer1.utilization              0.0                       # Layer utilization (Ratio)
system.membus.respLayer2.occupancy           31748000                       # Layer occupancy (ticks) (Tick)
system.membus.respLayer2.utilization              0.0                       # Layer utilization (Ratio)
system.membus.snoop_filter.totRequests         107593                       # Total number of requests made to the snoop filter. (Count)
system.membus.snoop_filter.hitSingleRequests        51545                       # Number of requests hitting in the snoop filter with a single holder of the requested data. (Count)
system.membus.snoop_filter.hitMultiRequests            2                       # Number of requests hitting in the snoop filter with multiple (>1) holders of the requested data. (Count)
system.membus.snoop_filter.totSnoops                0                       # Total number of snoops made to the snoop filter. (Count)
system.membus.snoop_filter.hitSingleSnoops            0                       # Number of snoops hitting in the snoop filter with a single holder of the requested data. (Count)
system.membus.snoop_filter.hitMultiSnoops            0                       # Number of snoops hitting in the snoop filter with multiple (>1) holders of the requested data. (Count)
system.voltage_domain.voltage                       1                       # Voltage in Volts (Volt)
system.workload.inst.arm                            0                       # number of arm instructions executed (Count)
system.workload.inst.quiesce                        0                       # number of quiesce instructions executed (Count)

---------- End Simulation Statistics   ----------
