
---------- Begin Simulation Statistics ----------
simSeconds                                   0.009670                       # Number of seconds simulated (Second)
simTicks                                   9670004000                       # Number of ticks simulated (Tick)
finalTick                                  9670004000                       # Number of ticks from beginning of simulation (restored from checkpoints and never reset) (Tick)
simFreq                                  1000000000000                       # The number of ticks per simulated second ((Tick/Second))
hostSeconds                                     48.78                       # Real time elapsed on the host (Second)
hostTickRate                                198228463                       # The number of ticks simulated per host second (ticks/s) ((Tick/Second))
hostMemory                                     641040                       # Number of bytes of host memory used (Byte)
simInsts                                     39561848                       # Number of instructions simulated (Count)
simOps                                       39561863                       # Number of ops (including micro ops) simulated (Count)
hostInstRate                                   810990                       # Simulator instruction rate (inst/s) ((Count/Second))
hostOpRate                                     810990                       # Simulator op (including micro ops) rate (op/s) ((Count/Second))
system.clk_domain.clock                          1000                       # Clock period in ticks (Tick)
system.cpu.numCycles                         19340009                       # Number of cpu cycles simulated (Cycle)
system.cpu.numWorkItemsStarted                      0                       # Number of work items this cpu started (Count)
system.cpu.numWorkItemsCompleted                    0                       # Number of work items this cpu completed (Count)
system.cpu.instsAdded                        42870078                       # Number of instructions added to the IQ (excludes non-spec) (Count)
system.cpu.nonSpecInstsAdded                    33319                       # Number of non-speculative instructions added to the IQ (Count)
system.cpu.instsIssued                       42056231                       # Number of instructions issued (Count)
system.cpu.squashedInstsIssued                  62686                       # Number of squashed instructions issued (Count)
system.cpu.squashedInstsExamined              3341533                       # Number of squashed instructions iterated over during squash; mainly for profiling (Count)
system.cpu.squashedOperandsExamined           1578307                       # Number of squashed operands that are examined and possibly removed from graph (Count)
system.cpu.squashedNonSpecRemoved                4571                       # Number of squashed non-spec instructions that were removed (Count)
system.cpu.numIssuedDist::samples            18443069                       # Number of insts issued each cycle (Count)
system.cpu.numIssuedDist::mean               2.280327                       # Number of insts issued each cycle (Count)
system.cpu.numIssuedDist::stdev              2.164302                       # Number of insts issued each cycle (Count)
system.cpu.numIssuedDist::underflows                0      0.00%      0.00% # Number of insts issued each cycle (Count)
system.cpu.numIssuedDist::0                   5289792     28.68%     28.68% # Number of insts issued each cycle (Count)
system.cpu.numIssuedDist::1                   3040844     16.49%     45.17% # Number of insts issued each cycle (Count)
system.cpu.numIssuedDist::2                   2637677     14.30%     59.47% # Number of insts issued each cycle (Count)
system.cpu.numIssuedDist::3                   2423866     13.14%     72.61% # Number of insts issued each cycle (Count)
system.cpu.numIssuedDist::4                   1907054     10.34%     82.95% # Number of insts issued each cycle (Count)
system.cpu.numIssuedDist::5                   1338514      7.26%     90.21% # Number of insts issued each cycle (Count)
system.cpu.numIssuedDist::6                    897135      4.86%     95.08% # Number of insts issued each cycle (Count)
system.cpu.numIssuedDist::7                    500657      2.71%     97.79% # Number of insts issued each cycle (Count)
system.cpu.numIssuedDist::8                    407530      2.21%    100.00% # Number of insts issued each cycle (Count)
system.cpu.numIssuedDist::overflows                 0      0.00%    100.00% # Number of insts issued each cycle (Count)
system.cpu.numIssuedDist::min_value                 0                       # Number of insts issued each cycle (Count)
system.cpu.numIssuedDist::max_value                 8                       # Number of insts issued each cycle (Count)
system.cpu.numIssuedDist::total              18443069                       # Number of insts issued each cycle (Count)
system.cpu.statFuBusy::No_OpClass                   0      0.00%      0.00% # attempts to use FU when none available (Count)
system.cpu.statFuBusy::IntAlu                  224427     17.26%     17.26% # attempts to use FU when none available (Count)
system.cpu.statFuBusy::IntMult                  81490      6.27%     23.53% # attempts to use FU when none available (Count)
system.cpu.statFuBusy::IntDiv                    1477      0.11%     23.64% # attempts to use FU when none available (Count)
system.cpu.statFuBusy::FloatAdd                   661      0.05%     23.69% # attempts to use FU when none available (Count)
system.cpu.statFuBusy::FloatCmp                   694      0.05%     23.75% # attempts to use FU when none available (Count)
system.cpu.statFuBusy::FloatCvt                     0      0.00%     23.75% # attempts to use FU when none available (Count)
system.cpu.statFuBusy::FloatMult                    0      0.00%     23.75% # attempts to use FU when none available (Count)
system.cpu.statFuBusy::FloatMultAcc             45713      3.52%     27.26% # attempts to use FU when none available (Count)
system.cpu.statFuBusy::FloatDiv                     0      0.00%     27.26% # attempts to use FU when none available (Count)
system.cpu.statFuBusy::FloatMisc                    0      0.00%     27.26% # attempts to use FU when none available (Count)
system.cpu.statFuBusy::FloatSqrt                    0      0.00%     27.26% # attempts to use FU when none available (Count)
system.cpu.statFuBusy::SimdAdd                      0      0.00%     27.26% # attempts to use FU when none available (Count)
system.cpu.statFuBusy::SimdAddAcc                   0      0.00%     27.26% # attempts to use FU when none available (Count)
system.cpu.statFuBusy::SimdAlu                      0      0.00%     27.26% # attempts to use FU when none available (Count)
system.cpu.statFuBusy::SimdCmp                      0      0.00%     27.26% # attempts to use FU when none available (Count)
system.cpu.statFuBusy::SimdCvt                      0      0.00%     27.26% # attempts to use FU when none available (Count)
system.cpu.statFuBusy::SimdMisc                     0      0.00%     27.26% # attempts to use FU when none available (Count)
system.cpu.statFuBusy::SimdMult                     0      0.00%     27.26% # attempts to use FU when none available (Count)
system.cpu.statFuBusy::SimdMultAcc                  0      0.00%     27.26% # attempts to use FU when none available (Count)
system.cpu.statFuBusy::SimdShift                    0      0.00%     27.26% # attempts to use FU when none available (Count)
system.cpu.statFuBusy::SimdShiftAcc                 0      0.00%     27.26% # attempts to use FU when none available (Count)
system.cpu.statFuBusy::SimdDiv                      0      0.00%     27.26% # attempts to use FU when none available (Count)
system.cpu.statFuBusy::SimdSqrt                     0      0.00%     27.26% # attempts to use FU when none available (Count)
system.cpu.statFuBusy::SimdFloatAdd                 0      0.00%     27.26% # attempts to use FU when none available (Count)
system.cpu.statFuBusy::SimdFloatAlu                 0      0.00%     27.26% # attempts to use FU when none available (Count)
system.cpu.statFuBusy::SimdFloatCmp                 0      0.00%     27.26% # attempts to use FU when none available (Count)
system.cpu.statFuBusy::SimdFloatCvt                 0      0.00%     27.26% # attempts to use FU when none available (Count)
system.cpu.statFuBusy::SimdFloatDiv                 0      0.00%     27.26% # attempts to use FU when none available (Count)
system.cpu.statFuBusy::SimdFloatMisc                0      0.00%     27.26% # attempts to use FU when none available (Count)
system.cpu.statFuBusy::SimdFloatMult                0      0.00%     27.26% # attempts to use FU when none available (Count)
system.cpu.statFuBusy::SimdFloatMultAcc             0      0.00%     27.26% # attempts to use FU when none available (Count)
system.cpu.statFuBusy::SimdFloatSqrt                0      0.00%     27.26% # attempts to use FU when none available (Count)
system.cpu.statFuBusy::SimdReduceAdd                0      0.00%     27.26% # attempts to use FU when none available (Count)
system.cpu.statFuBusy::SimdReduceAlu                0      0.00%     27.26% # attempts to use FU when none available (Count)
system.cpu.statFuBusy::SimdReduceCmp                0      0.00%     27.26% # attempts to use FU when none available (Count)
system.cpu.statFuBusy::SimdFloatReduceAdd            0      0.00%     27.26% # attempts to use FU when none available (Count)
system.cpu.statFuBusy::SimdFloatReduceCmp            0      0.00%     27.26% # attempts to use FU when none available (Count)
system.cpu.statFuBusy::SimdAes                      0      0.00%     27.26% # attempts to use FU when none available (Count)
system.cpu.statFuBusy::SimdAesMix                   0      0.00%     27.26% # attempts to use FU when none available (Count)
system.cpu.statFuBusy::SimdSha1Hash                 0      0.00%     27.26% # attempts to use FU when none available (Count)
system.cpu.statFuBusy::SimdSha1Hash2                0      0.00%     27.26% # attempts to use FU when none available (Count)
system.cpu.statFuBusy::SimdSha256Hash               0      0.00%     27.26% # attempts to use FU when none available (Count)
system.cpu.statFuBusy::SimdSha256Hash2              0      0.00%     27.26% # attempts to use FU when none available (Count)
system.cpu.statFuBusy::SimdShaSigma2                0      0.00%     27.26% # attempts to use FU when none available (Count)
system.cpu.statFuBusy::SimdShaSigma3                0      0.00%     27.26% # attempts to use FU when none available (Count)
system.cpu.statFuBusy::SimdPredAlu                  0      0.00%     27.26% # attempts to use FU when none available (Count)
system.cpu.statFuBusy::MemRead                 426864     32.83%     60.09% # attempts to use FU when none available (Count)
system.cpu.statFuBusy::MemWrite                472207     36.32%     96.41% # attempts to use FU when none available (Count)
system.cpu.statFuBusy::FloatMemRead             46663      3.59%    100.00% # attempts to use FU when none available (Count)
system.cpu.statFuBusy::FloatMemWrite                7      0.00%    100.00% # attempts to use FU when none available (Count)
system.cpu.statFuBusy::IprAccess                    0      0.00%    100.00% # attempts to use FU when none available (Count)
system.cpu.statFuBusy::InstPrefetch                 0      0.00%    100.00% # attempts to use FU when none available (Count)
system.cpu.statIssuedInstType_0::No_OpClass        28744      0.07%      0.07% # Number of instructions issued per FU type, per thread (Count)
system.cpu.statIssuedInstType_0::IntAlu      28601193     68.01%     68.08% # Number of instructions issued per FU type, per thread (Count)
system.cpu.statIssuedInstType_0::IntMult       479555      1.14%     69.22% # Number of instructions issued per FU type, per thread (Count)
system.cpu.statIssuedInstType_0::IntDiv        317801      0.76%     69.97% # Number of instructions issued per FU type, per thread (Count)
system.cpu.statIssuedInstType_0::FloatAdd        16384      0.04%     70.01% # Number of instructions issued per FU type, per thread (Count)
system.cpu.statIssuedInstType_0::FloatCmp        16384      0.04%     70.05% # Number of instructions issued per FU type, per thread (Count)
system.cpu.statIssuedInstType_0::FloatCvt        24576      0.06%     70.11% # Number of instructions issued per FU type, per thread (Count)
system.cpu.statIssuedInstType_0::FloatMult            0      0.00%     70.11% # Number of instructions issued per FU type, per thread (Count)
system.cpu.statIssuedInstType_0::FloatMultAcc       262144      0.62%     70.73% # Number of instructions issued per FU type, per thread (Count)
system.cpu.statIssuedInstType_0::FloatDiv            0      0.00%     70.73% # Number of instructions issued per FU type, per thread (Count)
system.cpu.statIssuedInstType_0::FloatMisc        16384      0.04%     70.77% # Number of instructions issued per FU type, per thread (Count)
system.cpu.statIssuedInstType_0::FloatSqrt            0      0.00%     70.77% # Number of instructions issued per FU type, per thread (Count)
system.cpu.statIssuedInstType_0::SimdAdd            0      0.00%     70.77% # Number of instructions issued per FU type, per thread (Count)
system.cpu.statIssuedInstType_0::SimdAddAcc            0      0.00%     70.77% # Number of instructions issued per FU type, per thread (Count)
system.cpu.statIssuedInstType_0::SimdAlu            0      0.00%     70.77% # Number of instructions issued per FU type, per thread (Count)
system.cpu.statIssuedInstType_0::SimdCmp            0      0.00%     70.77% # Number of instructions issued per FU type, per thread (Count)
system.cpu.statIssuedInstType_0::SimdCvt            0      0.00%     70.77% # Number of instructions issued per FU type, per thread (Count)
system.cpu.statIssuedInstType_0::SimdMisc            0      0.00%     70.77% # Number of instructions issued per FU type, per thread (Count)
system.cpu.statIssuedInstType_0::SimdMult            0      0.00%     70.77% # Number of instructions issued per FU type, per thread (Count)
system.cpu.statIssuedInstType_0::SimdMultAcc            0      0.00%     70.77% # Number of instructions issued per FU type, per thread (Count)
system.cpu.statIssuedInstType_0::SimdShift            0      0.00%     70.77% # Number of instructions issued per FU type, per thread (Count)
system.cpu.statIssuedInstType_0::SimdShiftAcc            0      0.00%     70.77% # Number of instructions issued per FU type, per thread (Count)
system.cpu.statIssuedInstType_0::SimdDiv            0      0.00%     70.77% # Number of instructions issued per FU type, per thread (Count)
system.cpu.statIssuedInstType_0::SimdSqrt            0      0.00%     70.77% # Number of instructions issued per FU type, per thread (Count)
system.cpu.statIssuedInstType_0::SimdFloatAdd            0      0.00%     70.77% # Number of instructions issued per FU type, per thread (Count)
system.cpu.statIssuedInstType_0::SimdFloatAlu            0      0.00%     70.77% # Number of instructions issued per FU type, per thread (Count)
system.cpu.statIssuedInstType_0::SimdFloatCmp            0      0.00%     70.77% # Number of instructions issued per FU type, per thread (Count)
system.cpu.statIssuedInstType_0::SimdFloatCvt            0      0.00%     70.77% # Number of instructions issued per FU type, per thread (Count)
system.cpu.statIssuedInstType_0::SimdFloatDiv            0      0.00%     70.77% # Number of instructions issued per FU type, per thread (Count)
system.cpu.statIssuedInstType_0::SimdFloatMisc            0      0.00%     70.77% # Number of instructions issued per FU type, per thread (Count)
system.cpu.statIssuedInstType_0::SimdFloatMult            0      0.00%     70.77% # Number of instructions issued per FU type, per thread (Count)
system.cpu.statIssuedInstType_0::SimdFloatMultAcc            0      0.00%     70.77% # Number of instructions issued per FU type, per thread (Count)
system.cpu.statIssuedInstType_0::SimdFloatSqrt            0      0.00%     70.77% # Number of instructions issued per FU type, per thread (Count)
system.cpu.statIssuedInstType_0::SimdReduceAdd            0      0.00%     70.77% # Number of instructions issued per FU type, per thread (Count)
system.cpu.statIssuedInstType_0::SimdReduceAlu            0      0.00%     70.77% # Number of instructions issued per FU type, per thread (Count)
system.cpu.statIssuedInstType_0::SimdReduceCmp            0      0.00%     70.77% # Number of instructions issued per FU type, per thread (Count)
system.cpu.statIssuedInstType_0::SimdFloatReduceAdd            0      0.00%     70.77% # Number of instructions issued per FU type, per thread (Count)
system.cpu.statIssuedInstType_0::SimdFloatReduceCmp            0      0.00%     70.77% # Number of instructions issued per FU type, per thread (Count)
system.cpu.statIssuedInstType_0::SimdAes            0      0.00%     70.77% # Number of instructions issued per FU type, per thread (Count)
system.cpu.statIssuedInstType_0::SimdAesMix            0      0.00%     70.77% # Number of instructions issued per FU type, per thread (Count)
system.cpu.statIssuedInstType_0::SimdSha1Hash            0      0.00%     70.77% # Number of instructions issued per FU type, per thread (Count)
system.cpu.statIssuedInstType_0::SimdSha1Hash2            0      0.00%     70.77% # Number of instructions issued per FU type, per thread (Count)
system.cpu.statIssuedInstType_0::SimdSha256Hash            0      0.00%     70.77% # Number of instructions issued per FU type, per thread (Count)
system.cpu.statIssuedInstType_0::SimdSha256Hash2            0      0.00%     70.77% # Number of instructions issued per FU type, per thread (Count)
system.cpu.statIssuedInstType_0::SimdShaSigma2            0      0.00%     70.77% # Number of instructions issued per FU type, per thread (Count)
system.cpu.statIssuedInstType_0::SimdShaSigma3            0      0.00%     70.77% # Number of instructions issued per FU type, per thread (Count)
system.cpu.statIssuedInstType_0::SimdPredAlu            0      0.00%     70.77% # Number of instructions issued per FU type, per thread (Count)
system.cpu.statIssuedInstType_0::MemRead      7295874     17.35%     88.12% # Number of instructions issued per FU type, per thread (Count)
system.cpu.statIssuedInstType_0::MemWrite      4324489     10.28%     98.40% # Number of instructions issued per FU type, per thread (Count)
system.cpu.statIssuedInstType_0::FloatMemRead       381863      0.91%     99.31% # Number of instructions issued per FU type, per thread (Count)
system.cpu.statIssuedInstType_0::FloatMemWrite       290840      0.69%    100.00% # Number of instructions issued per FU type, per thread (Count)
system.cpu.statIssuedInstType_0::IprAccess            0      0.00%    100.00% # Number of instructions issued per FU type, per thread (Count)
system.cpu.statIssuedInstType_0::InstPrefetch            0      0.00%    100.00% # Number of instructions issued per FU type, per thread (Count)
system.cpu.statIssuedInstType_0::total       42056231                       # Number of instructions issued per FU type, per thread (Count)
system.cpu.issueRate                         2.174571                       # Inst issue rate ((Count/Cycle))
system.cpu.fuBusy                             1300203                       # FU busy when requested (Count)
system.cpu.fuBusyRate                        0.030916                       # FU busy rate (busy events/executed inst) ((Count/Count))
system.cpu.intInstQueueReads                101807439                       # Number of integer instruction queue reads (Count)
system.cpu.intInstQueueWrites                45197231                       # Number of integer instruction queue writes (Count)
system.cpu.intInstQueueWakeupAccesses        40609207                       # Number of integer instruction queue wakeup accesses (Count)
system.cpu.fpInstQueueReads                   2110981                       # Number of floating instruction queue reads (Count)
system.cpu.fpInstQueueWrites                  1048046                       # Number of floating instruction queue writes (Count)
system.cpu.fpInstQueueWakeupAccesses           995351                       # Number of floating instruction queue wakeup accesses (Count)
system.cpu.vecInstQueueReads                        0                       # Number of vector instruction queue reads (Count)
system.cpu.vecInstQueueWrites                       0                       # Number of vector instruction queue writes (Count)
system.cpu.vecInstQueueWakeupAccesses               0                       # Number of vector instruction queue wakeup accesses (Count)
system.cpu.intAluAccesses                    42225377                       # Number of integer alu accesses (Count)
system.cpu.fpAluAccesses                      1102313                       # Number of floating point alu accesses (Count)
system.cpu.vecAluAccesses                           0                       # Number of vector alu accesses (Count)
system.cpu.numInsts                          41750112                       # Number of executed instructions (Count)
system.cpu.numLoadInsts                       7581339                       # Number of load instructions executed (Count)
system.cpu.numSquashedInsts                    306119                       # Number of squashed instructions skipped in execute (Count)
system.cpu.numSwp                                   0                       # Number of swp insts executed (Count)
system.cpu.numNop                                   0                       # Number of nop insts executed (Count)
system.cpu.numRefs                           12180283                       # Number of memory reference insts executed (Count)
system.cpu.numBranches                        8719003                       # Number of branches executed (Count)
system.cpu.numStoreInsts                      4598944                       # Number of stores executed (Count)
system.cpu.numRate                           2.158743                       # Inst execution rate ((Count/Cycle))
system.cpu.timesIdled                           43526                       # Number of times that the entire CPU went into an idle state and unscheduled itself (Count)
system.cpu.idleCycles                          896940                       # Total number of cycles that the CPU has spent unscheduled due to idling (Cycle)
system.cpu.committedInsts                    39561848                       # Number of Instructions Simulated (Count)
system.cpu.committedOps                      39561863                       # Number of Ops (including micro ops) Simulated (Count)
system.cpu.cpi                               0.488855                       # CPI: Cycles Per Instruction ((Cycle/Count))
system.cpu.totalCpi                          0.488855                       # CPI: Total CPI of All Threads ((Cycle/Count))
system.cpu.ipc                               2.045596                       # IPC: Instructions Per Cycle ((Count/Cycle))
system.cpu.totalIpc                          2.045596                       # IPC: Total IPC of All Threads ((Count/Cycle))
system.cpu.intRegfileReads                   52661707                       # Number of integer regfile reads (Count)
system.cpu.intRegfileWrites                  28343074                       # Number of integer regfile writes (Count)
system.cpu.fpRegfileReads                     1179672                       # Number of floating regfile reads (Count)
system.cpu.fpRegfileWrites                     686955                       # Number of floating regfile writes (Count)
system.cpu.miscRegfileReads                   1624981                       # number of misc regfile reads (Count)
system.cpu.miscRegfileWrites                   335872                       # number of misc regfile writes (Count)
system.cpu.MemDepUnit__0.insertedLoads        7756797                       # Number of loads inserted to the mem dependence unit. (Count)
system.cpu.MemDepUnit__0.insertedStores       4687945                       # Number of stores inserted to the mem dependence unit. (Count)
system.cpu.MemDepUnit__0.conflictingLoads       830591                       # Number of conflicting loads. (Count)
system.cpu.MemDepUnit__0.conflictingStores       312286                       # Number of conflicting stores. (Count)
system.cpu.MemDepUnit__1.insertedLoads              0                       # Number of loads inserted to the mem dependence unit. (Count)
system.cpu.MemDepUnit__1.insertedStores             0                       # Number of stores inserted to the mem dependence unit. (Count)
system.cpu.MemDepUnit__1.conflictingLoads            0                       # Number of conflicting loads. (Count)
system.cpu.MemDepUnit__1.conflictingStores            0                       # Number of conflicting stores. (Count)
system.cpu.MemDepUnit__2.insertedLoads              0                       # Number of loads inserted to the mem dependence unit. (Count)
system.cpu.MemDepUnit__2.insertedStores             0                       # Number of stores inserted to the mem dependence unit. (Count)
system.cpu.MemDepUnit__2.conflictingLoads            0                       # Number of conflicting loads. (Count)
system.cpu.MemDepUnit__2.conflictingStores            0                       # Number of conflicting stores. (Count)
system.cpu.MemDepUnit__3.insertedLoads              0                       # Number of loads inserted to the mem dependence unit. (Count)
system.cpu.MemDepUnit__3.insertedStores             0                       # Number of stores inserted to the mem dependence unit. (Count)
system.cpu.MemDepUnit__3.conflictingLoads            0                       # Number of conflicting loads. (Count)
system.cpu.MemDepUnit__3.conflictingStores            0                       # Number of conflicting stores. (Count)
system.cpu.branchPred.lookups                 9957333                       # Number of BP lookups (Count)
system.cpu.branchPred.condPredicted           7531447                       # Number of conditional branches predicted (Count)
system.cpu.branchPred.condIncorrect            188684                       # Number of conditional branches incorrect (Count)
system.cpu.branchPred.BTBLookups              5443559                       # Number of BTB lookups (Count)
system.cpu.branchPred.BTBHits                 5419136                       # Number of BTB hits (Count)
system.cpu.branchPred.BTBHitRatio            0.995513                       # BTB Hit Ratio (Ratio)
system.cpu.branchPred.RASUsed                       0                       # Number of times the RAS was used to get a target. (Count)
system.cpu.branchPred.RASIncorrect                  0                       # Number of incorrect RAS predictions. (Count)
system.cpu.branchPred.indirectLookups          592758                       # Number of indirect predictor lookups. (Count)
system.cpu.branchPred.indirectHits             590846                       # Number of indirect target hits. (Count)
system.cpu.branchPred.indirectMisses             1912                       # Number of indirect misses. (Count)
system.cpu.branchPred.indirectMispredicted        19914                       # Number of mispredicted indirect branches. (Count)
system.cpu.commit.commitSquashedInsts         3341105                       # The number of squashed insts skipped by commit (Count)
system.cpu.commit.commitNonSpecStalls           28748                       # The number of times commit has been forced to stall to communicate backwards (Count)
system.cpu.commit.branchMispredicts            176334                       # The number of times a branch was mispredicted (Count)
system.cpu.commit.numCommittedDist::samples     17924137                       # Number of insts commited each cycle (Count)
system.cpu.commit.numCommittedDist::mean     2.207184                       # Number of insts commited each cycle (Count)
system.cpu.commit.numCommittedDist::stdev     2.788900                       # Number of insts commited each cycle (Count)
system.cpu.commit.numCommittedDist::underflows            0      0.00%      0.00% # Number of insts commited each cycle (Count)
system.cpu.commit.numCommittedDist::0         7457417     41.61%     41.61% # Number of insts commited each cycle (Count)
system.cpu.commit.numCommittedDist::1         3255761     18.16%     59.77% # Number of insts commited each cycle (Count)
system.cpu.commit.numCommittedDist::2         1564139      8.73%     68.50% # Number of insts commited each cycle (Count)
system.cpu.commit.numCommittedDist::3         1111976      6.20%     74.70% # Number of insts commited each cycle (Count)
system.cpu.commit.numCommittedDist::4          645834      3.60%     78.30% # Number of insts commited each cycle (Count)
system.cpu.commit.numCommittedDist::5          736343      4.11%     82.41% # Number of insts commited each cycle (Count)
system.cpu.commit.numCommittedDist::6          684129      3.82%     86.23% # Number of insts commited each cycle (Count)
system.cpu.commit.numCommittedDist::7          276233      1.54%     87.77% # Number of insts commited each cycle (Count)
system.cpu.commit.numCommittedDist::8         2192305     12.23%    100.00% # Number of insts commited each cycle (Count)
system.cpu.commit.numCommittedDist::overflows            0      0.00%    100.00% # Number of insts commited each cycle (Count)
system.cpu.commit.numCommittedDist::min_value            0                       # Number of insts commited each cycle (Count)
system.cpu.commit.numCommittedDist::max_value            8                       # Number of insts commited each cycle (Count)
system.cpu.commit.numCommittedDist::total     17924137                       # Number of insts commited each cycle (Count)
system.cpu.commit.instsCommitted             39561848                       # Number of instructions committed (Count)
system.cpu.commit.opsCommitted               39561863                       # Number of ops (including micro ops) committed (Count)
system.cpu.commit.memRefs                    11515197                       # Number of memory references committed (Count)
system.cpu.commit.loads                       7164559                       # Number of loads committed (Count)
system.cpu.commit.amos                             17                       # Number of atomic instructions committed (Count)
system.cpu.commit.membars                          25                       # Number of memory barriers committed (Count)
system.cpu.commit.branches                    8127089                       # Number of branches committed (Count)
system.cpu.commit.vectorInstructions                0                       # Number of committed Vector instructions. (Count)
system.cpu.commit.floating                     995348                       # Number of committed floating point instructions. (Count)
system.cpu.commit.integer                    38444128                       # Number of committed integer instructions. (Count)
system.cpu.commit.functionCalls               1174816                       # Number of function calls committed. (Count)
system.cpu.commit.committedInstType_0::No_OpClass        24601      0.06%      0.06% # Class of committed instruction (Count)
system.cpu.commit.committedInstType_0::IntAlu     26890436     67.97%     68.03% # Class of committed instruction (Count)
system.cpu.commit.committedInstType_0::IntMult       479462      1.21%     69.24% # Class of committed instruction (Count)
system.cpu.commit.committedInstType_0::IntDiv       316295      0.80%     70.04% # Class of committed instruction (Count)
system.cpu.commit.committedInstType_0::FloatAdd        16384      0.04%     70.09% # Class of committed instruction (Count)
system.cpu.commit.committedInstType_0::FloatCmp        16384      0.04%     70.13% # Class of committed instruction (Count)
system.cpu.commit.committedInstType_0::FloatCvt        24576      0.06%     70.19% # Class of committed instruction (Count)
system.cpu.commit.committedInstType_0::FloatMult            0      0.00%     70.19% # Class of committed instruction (Count)
system.cpu.commit.committedInstType_0::FloatMultAcc       262144      0.66%     70.85% # Class of committed instruction (Count)
system.cpu.commit.committedInstType_0::FloatDiv            0      0.00%     70.85% # Class of committed instruction (Count)
system.cpu.commit.committedInstType_0::FloatMisc        16384      0.04%     70.89% # Class of committed instruction (Count)
system.cpu.commit.committedInstType_0::FloatSqrt            0      0.00%     70.89% # Class of committed instruction (Count)
system.cpu.commit.committedInstType_0::SimdAdd            0      0.00%     70.89% # Class of committed instruction (Count)
system.cpu.commit.committedInstType_0::SimdAddAcc            0      0.00%     70.89% # Class of committed instruction (Count)
system.cpu.commit.committedInstType_0::SimdAlu            0      0.00%     70.89% # Class of committed instruction (Count)
system.cpu.commit.committedInstType_0::SimdCmp            0      0.00%     70.89% # Class of committed instruction (Count)
system.cpu.commit.committedInstType_0::SimdCvt            0      0.00%     70.89% # Class of committed instruction (Count)
system.cpu.commit.committedInstType_0::SimdMisc            0      0.00%     70.89% # Class of committed instruction (Count)
system.cpu.commit.committedInstType_0::SimdMult            0      0.00%     70.89% # Class of committed instruction (Count)
system.cpu.commit.committedInstType_0::SimdMultAcc            0      0.00%     70.89% # Class of committed instruction (Count)
system.cpu.commit.committedInstType_0::SimdShift            0      0.00%     70.89% # Class of committed instruction (Count)
system.cpu.commit.committedInstType_0::SimdShiftAcc            0      0.00%     70.89% # Class of committed instruction (Count)
system.cpu.commit.committedInstType_0::SimdDiv            0      0.00%     70.89% # Class of committed instruction (Count)
system.cpu.commit.committedInstType_0::SimdSqrt            0      0.00%     70.89% # Class of committed instruction (Count)
system.cpu.commit.committedInstType_0::SimdFloatAdd            0      0.00%     70.89% # Class of committed instruction (Count)
system.cpu.commit.committedInstType_0::SimdFloatAlu            0      0.00%     70.89% # Class of committed instruction (Count)
system.cpu.commit.committedInstType_0::SimdFloatCmp            0      0.00%     70.89% # Class of committed instruction (Count)
system.cpu.commit.committedInstType_0::SimdFloatCvt            0      0.00%     70.89% # Class of committed instruction (Count)
system.cpu.commit.committedInstType_0::SimdFloatDiv            0      0.00%     70.89% # Class of committed instruction (Count)
system.cpu.commit.committedInstType_0::SimdFloatMisc            0      0.00%     70.89% # Class of committed instruction (Count)
system.cpu.commit.committedInstType_0::SimdFloatMult            0      0.00%     70.89% # Class of committed instruction (Count)
system.cpu.commit.committedInstType_0::SimdFloatMultAcc            0      0.00%     70.89% # Class of committed instruction (Count)
system.cpu.commit.committedInstType_0::SimdFloatSqrt            0      0.00%     70.89% # Class of committed instruction (Count)
system.cpu.commit.committedInstType_0::SimdReduceAdd            0      0.00%     70.89% # Class of committed instruction (Count)
system.cpu.commit.committedInstType_0::SimdReduceAlu            0      0.00%     70.89% # Class of committed instruction (Count)
system.cpu.commit.committedInstType_0::SimdReduceCmp            0      0.00%     70.89% # Class of committed instruction (Count)
system.cpu.commit.committedInstType_0::SimdFloatReduceAdd            0      0.00%     70.89% # Class of committed instruction (Count)
system.cpu.commit.committedInstType_0::SimdFloatReduceCmp            0      0.00%     70.89% # Class of committed instruction (Count)
system.cpu.commit.committedInstType_0::SimdAes            0      0.00%     70.89% # Class of committed instruction (Count)
system.cpu.commit.committedInstType_0::SimdAesMix            0      0.00%     70.89% # Class of committed instruction (Count)
system.cpu.commit.committedInstType_0::SimdSha1Hash            0      0.00%     70.89% # Class of committed instruction (Count)
system.cpu.commit.committedInstType_0::SimdSha1Hash2            0      0.00%     70.89% # Class of committed instruction (Count)
system.cpu.commit.committedInstType_0::SimdSha256Hash            0      0.00%     70.89% # Class of committed instruction (Count)
system.cpu.commit.committedInstType_0::SimdSha256Hash2            0      0.00%     70.89% # Class of committed instruction (Count)
system.cpu.commit.committedInstType_0::SimdShaSigma2            0      0.00%     70.89% # Class of committed instruction (Count)
system.cpu.commit.committedInstType_0::SimdShaSigma3            0      0.00%     70.89% # Class of committed instruction (Count)
system.cpu.commit.committedInstType_0::SimdPredAlu            0      0.00%     70.89% # Class of committed instruction (Count)
system.cpu.commit.committedInstType_0::MemRead      6795931     17.18%     88.07% # Class of committed instruction (Count)
system.cpu.commit.committedInstType_0::MemWrite      4059790     10.26%     98.33% # Class of committed instruction (Count)
system.cpu.commit.committedInstType_0::FloatMemRead       368645      0.93%     99.26% # Class of committed instruction (Count)
system.cpu.commit.committedInstType_0::FloatMemWrite       290831      0.74%    100.00% # Class of committed instruction (Count)
system.cpu.commit.committedInstType_0::IprAccess            0      0.00%    100.00% # Class of committed instruction (Count)
system.cpu.commit.committedInstType_0::InstPrefetch            0      0.00%    100.00% # Class of committed instruction (Count)
system.cpu.commit.committedInstType_0::total     39561863                       # Class of committed instruction (Count)
system.cpu.commit.commitEligibleSamples       2192305                       # number cycles where commit BW limit reached (Cycle)
system.cpu.dcache.demandHits::cpu.data       10594511                       # number of demand (read+write) hits (Count)
system.cpu.dcache.demandHits::total          10594511                       # number of demand (read+write) hits (Count)
system.cpu.dcache.overallHits::cpu.data      10594511                       # number of overall hits (Count)
system.cpu.dcache.overallHits::total         10594511                       # number of overall hits (Count)
system.cpu.dcache.demandMisses::cpu.data        48702                       # number of demand (read+write) misses (Count)
system.cpu.dcache.demandMisses::total           48702                       # number of demand (read+write) misses (Count)
system.cpu.dcache.overallMisses::cpu.data        48702                       # number of overall misses (Count)
system.cpu.dcache.overallMisses::total          48702                       # number of overall misses (Count)
system.cpu.dcache.demandMissLatency::cpu.data   2770810487                       # number of demand (read+write) miss ticks (Tick)
system.cpu.dcache.demandMissLatency::total   2770810487                       # number of demand (read+write) miss ticks (Tick)
system.cpu.dcache.overallMissLatency::cpu.data   2770810487                       # number of overall miss ticks (Tick)
system.cpu.dcache.overallMissLatency::total   2770810487                       # number of overall miss ticks (Tick)
system.cpu.dcache.demandAccesses::cpu.data     10643213                       # number of demand (read+write) accesses (Count)
system.cpu.dcache.demandAccesses::total      10643213                       # number of demand (read+write) accesses (Count)
system.cpu.dcache.overallAccesses::cpu.data     10643213                       # number of overall (read+write) accesses (Count)
system.cpu.dcache.overallAccesses::total     10643213                       # number of overall (read+write) accesses (Count)
system.cpu.dcache.demandMissRate::cpu.data     0.004576                       # miss rate for demand accesses (Ratio)
system.cpu.dcache.demandMissRate::total      0.004576                       # miss rate for demand accesses (Ratio)
system.cpu.dcache.overallMissRate::cpu.data     0.004576                       # miss rate for overall accesses (Ratio)
system.cpu.dcache.overallMissRate::total     0.004576                       # miss rate for overall accesses (Ratio)
system.cpu.dcache.demandAvgMissLatency::cpu.data 56893.156072                       # average overall miss latency ((Cycle/Count))
system.cpu.dcache.demandAvgMissLatency::total 56893.156072                       # average overall miss latency ((Cycle/Count))
system.cpu.dcache.overallAvgMissLatency::cpu.data 56893.156072                       # average overall miss latency ((Cycle/Count))
system.cpu.dcache.overallAvgMissLatency::total 56893.156072                       # average overall miss latency ((Cycle/Count))
system.cpu.dcache.blockedCycles::no_mshrs        31316                       # number of cycles access was blocked (Cycle)
system.cpu.dcache.blockedCycles::no_targets        13228                       # number of cycles access was blocked (Cycle)
system.cpu.dcache.blockedCauses::no_mshrs         1216                       # number of times access was blocked (Count)
system.cpu.dcache.blockedCauses::no_targets          134                       # number of times access was blocked (Count)
system.cpu.dcache.avgBlocked::no_mshrs      25.753289                       # average number of cycles each access was blocked ((Cycle/Count))
system.cpu.dcache.avgBlocked::no_targets    98.716418                       # average number of cycles each access was blocked ((Cycle/Count))
system.cpu.dcache.writebacks::writebacks         5520                       # number of writebacks (Count)
system.cpu.dcache.writebacks::total              5520                       # number of writebacks (Count)
system.cpu.dcache.demandMshrHits::cpu.data        40358                       # number of demand (read+write) MSHR hits (Count)
system.cpu.dcache.demandMshrHits::total         40358                       # number of demand (read+write) MSHR hits (Count)
system.cpu.dcache.overallMshrHits::cpu.data        40358                       # number of overall MSHR hits (Count)
system.cpu.dcache.overallMshrHits::total        40358                       # number of overall MSHR hits (Count)
system.cpu.dcache.demandMshrMisses::cpu.data         8344                       # number of demand (read+write) MSHR misses (Count)
system.cpu.dcache.demandMshrMisses::total         8344                       # number of demand (read+write) MSHR misses (Count)
system.cpu.dcache.overallMshrMisses::cpu.data         8344                       # number of overall MSHR misses (Count)
system.cpu.dcache.overallMshrMisses::total         8344                       # number of overall MSHR misses (Count)
system.cpu.dcache.demandMshrMissLatency::cpu.data    493478000                       # number of demand (read+write) MSHR miss ticks (Tick)
system.cpu.dcache.demandMshrMissLatency::total    493478000                       # number of demand (read+write) MSHR miss ticks (Tick)
system.cpu.dcache.overallMshrMissLatency::cpu.data    493478000                       # number of overall MSHR miss ticks (Tick)
system.cpu.dcache.overallMshrMissLatency::total    493478000                       # number of overall MSHR miss ticks (Tick)
system.cpu.dcache.demandMshrMissRate::cpu.data     0.000784                       # mshr miss ratio for demand accesses (Ratio)
system.cpu.dcache.demandMshrMissRate::total     0.000784                       # mshr miss ratio for demand accesses (Ratio)
system.cpu.dcache.overallMshrMissRate::cpu.data     0.000784                       # mshr miss ratio for overall accesses (Ratio)
system.cpu.dcache.overallMshrMissRate::total     0.000784                       # mshr miss ratio for overall accesses (Ratio)
system.cpu.dcache.demandAvgMshrMissLatency::cpu.data 59141.658677                       # average overall mshr miss latency ((Cycle/Count))
system.cpu.dcache.demandAvgMshrMissLatency::total 59141.658677                       # average overall mshr miss latency ((Cycle/Count))
system.cpu.dcache.overallAvgMshrMissLatency::cpu.data 59141.658677                       # average overall mshr miss latency ((Cycle/Count))
system.cpu.dcache.overallAvgMshrMissLatency::total 59141.658677                       # average overall mshr miss latency ((Cycle/Count))
system.cpu.dcache.replacements                   6299                       # number of replacements (Count)
system.cpu.dcache.LoadLockedReq.hits::cpu.data            9                       # number of LoadLockedReq hits (Count)
system.cpu.dcache.LoadLockedReq.hits::total            9                       # number of LoadLockedReq hits (Count)
system.cpu.dcache.LoadLockedReq.misses::cpu.data            4                       # number of LoadLockedReq misses (Count)
system.cpu.dcache.LoadLockedReq.misses::total            4                       # number of LoadLockedReq misses (Count)
system.cpu.dcache.LoadLockedReq.missLatency::cpu.data       268500                       # number of LoadLockedReq miss ticks (Tick)
system.cpu.dcache.LoadLockedReq.missLatency::total       268500                       # number of LoadLockedReq miss ticks (Tick)
system.cpu.dcache.LoadLockedReq.accesses::cpu.data           13                       # number of LoadLockedReq accesses(hits+misses) (Count)
system.cpu.dcache.LoadLockedReq.accesses::total           13                       # number of LoadLockedReq accesses(hits+misses) (Count)
system.cpu.dcache.LoadLockedReq.missRate::cpu.data     0.307692                       # miss rate for LoadLockedReq accesses (Ratio)
system.cpu.dcache.LoadLockedReq.missRate::total     0.307692                       # miss rate for LoadLockedReq accesses (Ratio)
system.cpu.dcache.LoadLockedReq.avgMissLatency::cpu.data        67125                       # average LoadLockedReq miss latency ((Tick/Count))
system.cpu.dcache.LoadLockedReq.avgMissLatency::total        67125                       # average LoadLockedReq miss latency ((Tick/Count))
system.cpu.dcache.LoadLockedReq.mshrHits::cpu.data            1                       # number of LoadLockedReq MSHR hits (Count)
system.cpu.dcache.LoadLockedReq.mshrHits::total            1                       # number of LoadLockedReq MSHR hits (Count)
system.cpu.dcache.LoadLockedReq.mshrMisses::cpu.data            3                       # number of LoadLockedReq MSHR misses (Count)
system.cpu.dcache.LoadLockedReq.mshrMisses::total            3                       # number of LoadLockedReq MSHR misses (Count)
system.cpu.dcache.LoadLockedReq.mshrMissLatency::cpu.data       190500                       # number of LoadLockedReq MSHR miss ticks (Tick)
system.cpu.dcache.LoadLockedReq.mshrMissLatency::total       190500                       # number of LoadLockedReq MSHR miss ticks (Tick)
system.cpu.dcache.LoadLockedReq.mshrMissRate::cpu.data     0.230769                       # mshr miss rate for LoadLockedReq accesses (Ratio)
system.cpu.dcache.LoadLockedReq.mshrMissRate::total     0.230769                       # mshr miss rate for LoadLockedReq accesses (Ratio)
system.cpu.dcache.LoadLockedReq.avgMshrMissLatency::cpu.data        63500                       # average LoadLockedReq mshr miss latency ((Tick/Count))
system.cpu.dcache.LoadLockedReq.avgMshrMissLatency::total        63500                       # average LoadLockedReq mshr miss latency ((Tick/Count))
system.cpu.dcache.ReadReq.hits::cpu.data      6257854                       # number of ReadReq hits (Count)
system.cpu.dcache.ReadReq.hits::total         6257854                       # number of ReadReq hits (Count)
system.cpu.dcache.ReadReq.misses::cpu.data        34747                       # number of ReadReq misses (Count)
system.cpu.dcache.ReadReq.misses::total         34747                       # number of ReadReq misses (Count)
system.cpu.dcache.ReadReq.missLatency::cpu.data   2079336500                       # number of ReadReq miss ticks (Tick)
system.cpu.dcache.ReadReq.missLatency::total   2079336500                       # number of ReadReq miss ticks (Tick)
system.cpu.dcache.ReadReq.accesses::cpu.data      6292601                       # number of ReadReq accesses(hits+misses) (Count)
system.cpu.dcache.ReadReq.accesses::total      6292601                       # number of ReadReq accesses(hits+misses) (Count)
system.cpu.dcache.ReadReq.missRate::cpu.data     0.005522                       # miss rate for ReadReq accesses (Ratio)
system.cpu.dcache.ReadReq.missRate::total     0.005522                       # miss rate for ReadReq accesses (Ratio)
system.cpu.dcache.ReadReq.avgMissLatency::cpu.data 59842.187815                       # average ReadReq miss latency ((Tick/Count))
system.cpu.dcache.ReadReq.avgMissLatency::total 59842.187815                       # average ReadReq miss latency ((Tick/Count))
system.cpu.dcache.ReadReq.mshrHits::cpu.data        29182                       # number of ReadReq MSHR hits (Count)
system.cpu.dcache.ReadReq.mshrHits::total        29182                       # number of ReadReq MSHR hits (Count)
system.cpu.dcache.ReadReq.mshrMisses::cpu.data         5565                       # number of ReadReq MSHR misses (Count)
system.cpu.dcache.ReadReq.mshrMisses::total         5565                       # number of ReadReq MSHR misses (Count)
system.cpu.dcache.ReadReq.mshrMissLatency::cpu.data    334884500                       # number of ReadReq MSHR miss ticks (Tick)
system.cpu.dcache.ReadReq.mshrMissLatency::total    334884500                       # number of ReadReq MSHR miss ticks (Tick)
system.cpu.dcache.ReadReq.mshrMissRate::cpu.data     0.000884                       # mshr miss rate for ReadReq accesses (Ratio)
system.cpu.dcache.ReadReq.mshrMissRate::total     0.000884                       # mshr miss rate for ReadReq accesses (Ratio)
system.cpu.dcache.ReadReq.avgMshrMissLatency::cpu.data 60176.909254                       # average ReadReq mshr miss latency ((Tick/Count))
system.cpu.dcache.ReadReq.avgMshrMissLatency::total 60176.909254                       # average ReadReq mshr miss latency ((Tick/Count))
system.cpu.dcache.StoreCondReq.hits::cpu.data            9                       # number of StoreCondReq hits (Count)
system.cpu.dcache.StoreCondReq.hits::total            9                       # number of StoreCondReq hits (Count)
system.cpu.dcache.StoreCondReq.accesses::cpu.data            9                       # number of StoreCondReq accesses(hits+misses) (Count)
system.cpu.dcache.StoreCondReq.accesses::total            9                       # number of StoreCondReq accesses(hits+misses) (Count)
system.cpu.dcache.SwapReq.hits::cpu.data           16                       # number of SwapReq hits (Count)
system.cpu.dcache.SwapReq.hits::total              16                       # number of SwapReq hits (Count)
system.cpu.dcache.SwapReq.misses::cpu.data            1                       # number of SwapReq misses (Count)
system.cpu.dcache.SwapReq.misses::total             1                       # number of SwapReq misses (Count)
system.cpu.dcache.SwapReq.missLatency::cpu.data        62000                       # number of SwapReq miss ticks (Tick)
system.cpu.dcache.SwapReq.missLatency::total        62000                       # number of SwapReq miss ticks (Tick)
system.cpu.dcache.SwapReq.accesses::cpu.data           17                       # number of SwapReq accesses(hits+misses) (Count)
system.cpu.dcache.SwapReq.accesses::total           17                       # number of SwapReq accesses(hits+misses) (Count)
system.cpu.dcache.SwapReq.missRate::cpu.data     0.058824                       # miss rate for SwapReq accesses (Ratio)
system.cpu.dcache.SwapReq.missRate::total     0.058824                       # miss rate for SwapReq accesses (Ratio)
system.cpu.dcache.SwapReq.avgMissLatency::cpu.data        62000                       # average SwapReq miss latency ((Tick/Count))
system.cpu.dcache.SwapReq.avgMissLatency::total        62000                       # average SwapReq miss latency ((Tick/Count))
system.cpu.dcache.SwapReq.mshrMisses::cpu.data            1                       # number of SwapReq MSHR misses (Count)
system.cpu.dcache.SwapReq.mshrMisses::total            1                       # number of SwapReq MSHR misses (Count)
system.cpu.dcache.SwapReq.mshrMissLatency::cpu.data        61000                       # number of SwapReq MSHR miss ticks (Tick)
system.cpu.dcache.SwapReq.mshrMissLatency::total        61000                       # number of SwapReq MSHR miss ticks (Tick)
system.cpu.dcache.SwapReq.mshrMissRate::cpu.data     0.058824                       # mshr miss rate for SwapReq accesses (Ratio)
system.cpu.dcache.SwapReq.mshrMissRate::total     0.058824                       # mshr miss rate for SwapReq accesses (Ratio)
system.cpu.dcache.SwapReq.avgMshrMissLatency::cpu.data        61000                       # average SwapReq mshr miss latency ((Tick/Count))
system.cpu.dcache.SwapReq.avgMshrMissLatency::total        61000                       # average SwapReq mshr miss latency ((Tick/Count))
system.cpu.dcache.WriteReq.hits::cpu.data      4336657                       # number of WriteReq hits (Count)
system.cpu.dcache.WriteReq.hits::total        4336657                       # number of WriteReq hits (Count)
system.cpu.dcache.WriteReq.misses::cpu.data        13955                       # number of WriteReq misses (Count)
system.cpu.dcache.WriteReq.misses::total        13955                       # number of WriteReq misses (Count)
system.cpu.dcache.WriteReq.missLatency::cpu.data    691473987                       # number of WriteReq miss ticks (Tick)
system.cpu.dcache.WriteReq.missLatency::total    691473987                       # number of WriteReq miss ticks (Tick)
system.cpu.dcache.WriteReq.accesses::cpu.data      4350612                       # number of WriteReq accesses(hits+misses) (Count)
system.cpu.dcache.WriteReq.accesses::total      4350612                       # number of WriteReq accesses(hits+misses) (Count)
system.cpu.dcache.WriteReq.missRate::cpu.data     0.003208                       # miss rate for WriteReq accesses (Ratio)
system.cpu.dcache.WriteReq.missRate::total     0.003208                       # miss rate for WriteReq accesses (Ratio)
system.cpu.dcache.WriteReq.avgMissLatency::cpu.data 49550.267789                       # average WriteReq miss latency ((Tick/Count))
system.cpu.dcache.WriteReq.avgMissLatency::total 49550.267789                       # average WriteReq miss latency ((Tick/Count))
system.cpu.dcache.WriteReq.mshrHits::cpu.data        11176                       # number of WriteReq MSHR hits (Count)
system.cpu.dcache.WriteReq.mshrHits::total        11176                       # number of WriteReq MSHR hits (Count)
system.cpu.dcache.WriteReq.mshrMisses::cpu.data         2779                       # number of WriteReq MSHR misses (Count)
system.cpu.dcache.WriteReq.mshrMisses::total         2779                       # number of WriteReq MSHR misses (Count)
system.cpu.dcache.WriteReq.mshrMissLatency::cpu.data    158593500                       # number of WriteReq MSHR miss ticks (Tick)
system.cpu.dcache.WriteReq.mshrMissLatency::total    158593500                       # number of WriteReq MSHR miss ticks (Tick)
system.cpu.dcache.WriteReq.mshrMissRate::cpu.data     0.000639                       # mshr miss rate for WriteReq accesses (Ratio)
system.cpu.dcache.WriteReq.mshrMissRate::total     0.000639                       # mshr miss rate for WriteReq accesses (Ratio)
system.cpu.dcache.WriteReq.avgMshrMissLatency::cpu.data 57068.549838                       # average WriteReq mshr miss latency ((Tick/Count))
system.cpu.dcache.WriteReq.avgMshrMissLatency::total 57068.549838                       # average WriteReq mshr miss latency ((Tick/Count))
system.cpu.dcache.power_state.pwrStateResidencyTicks::UNDEFINED   9670004000                       # Cumulative time (in ticks) in various power states (Tick)
system.cpu.dcache.tags.tagsInUse          2033.194324                       # Average ticks per tags in use ((Tick/Count))
system.cpu.dcache.tags.totalRefs             10602892                       # Total number of references to valid blocks. (Count)
system.cpu.dcache.tags.sampledRefs               8347                       # Sample count of references to valid blocks. (Count)
system.cpu.dcache.tags.avgRefs            1270.263807                       # Average number of references to valid blocks. ((Count/Count))
system.cpu.dcache.tags.warmupTick              152000                       # The tick when the warmup percentage was hit. (Tick)
system.cpu.dcache.tags.occupancies::cpu.data  2033.194324                       # Average occupied blocks per tick, per requestor ((Count/Tick))
system.cpu.dcache.tags.avgOccs::cpu.data     0.992771                       # Average percentage of cache occupancy ((Ratio/Tick))
system.cpu.dcache.tags.avgOccs::total        0.992771                       # Average percentage of cache occupancy ((Ratio/Tick))
system.cpu.dcache.tags.occupanciesTaskId::1024         2048                       # Occupied blocks per task id (Count)
system.cpu.dcache.tags.ageTaskId_1024::0          156                       # Occupied blocks per task id, per block age (Count)
system.cpu.dcache.tags.ageTaskId_1024::1          445                       # Occupied blocks per task id, per block age (Count)
system.cpu.dcache.tags.ageTaskId_1024::2          998                       # Occupied blocks per task id, per block age (Count)
system.cpu.dcache.tags.ageTaskId_1024::3          449                       # Occupied blocks per task id, per block age (Count)
system.cpu.dcache.tags.ratioOccsTaskId::1024            1                       # Ratio of occupied blocks and all blocks, per task id (Ratio)
system.cpu.dcache.tags.tagAccesses           21294851                       # Number of tag accesses (Count)
system.cpu.dcache.tags.dataAccesses          21294851                       # Number of data accesses (Count)
system.cpu.dcache.tags.power_state.pwrStateResidencyTicks::UNDEFINED   9670004000                       # Cumulative time (in ticks) in various power states (Tick)
system.cpu.decode.idleCycles                  6264156                       # Number of cycles decode is idle (Cycle)
system.cpu.decode.blockedCycles               3084675                       # Number of cycles decode is blocked (Cycle)
system.cpu.decode.runCycles                   8404789                       # Number of cycles decode is running (Cycle)
system.cpu.decode.unblockCycles                508632                       # Number of cycles decode is unblocking (Cycle)
system.cpu.decode.squashCycles                 180817                       # Number of cycles decode is squashing (Cycle)
system.cpu.decode.branchResolved              5259423                       # Number of times decode resolved a branch (Count)
system.cpu.decode.branchMispred                 12390                       # Number of times decode detected a branch misprediction (Count)
system.cpu.decode.decodedInsts               44699022                       # Number of instructions handled by decode (Count)
system.cpu.decode.squashedInsts                 27715                       # Number of squashed instructions handled by decode (Count)
system.cpu.dtb_walker_cache.blockedCycles::no_mshrs            0                       # number of cycles access was blocked (Cycle)
system.cpu.dtb_walker_cache.blockedCycles::no_targets            0                       # number of cycles access was blocked (Cycle)
system.cpu.dtb_walker_cache.blockedCauses::no_mshrs            0                       # number of times access was blocked (Count)
system.cpu.dtb_walker_cache.blockedCauses::no_targets            0                       # number of times access was blocked (Count)
system.cpu.dtb_walker_cache.avgBlocked::no_mshrs          nan                       # average number of cycles each access was blocked ((Cycle/Count))
system.cpu.dtb_walker_cache.avgBlocked::no_targets          nan                       # average number of cycles each access was blocked ((Cycle/Count))
system.cpu.dtb_walker_cache.replacements            0                       # number of replacements (Count)
system.cpu.dtb_walker_cache.power_state.pwrStateResidencyTicks::UNDEFINED   9670004000                       # Cumulative time (in ticks) in various power states (Tick)
system.cpu.dtb_walker_cache.tags.tagsInUse            0                       # Average ticks per tags in use ((Tick/Count))
system.cpu.dtb_walker_cache.tags.totalRefs            0                       # Total number of references to valid blocks. (Count)
system.cpu.dtb_walker_cache.tags.sampledRefs            0                       # Sample count of references to valid blocks. (Count)
system.cpu.dtb_walker_cache.tags.avgRefs          nan                       # Average number of references to valid blocks. ((Count/Count))
system.cpu.dtb_walker_cache.tags.warmupTick            0                       # The tick when the warmup percentage was hit. (Tick)
system.cpu.dtb_walker_cache.tags.tagAccesses            0                       # Number of tag accesses (Count)
system.cpu.dtb_walker_cache.tags.dataAccesses            0                       # Number of data accesses (Count)
system.cpu.dtb_walker_cache.tags.power_state.pwrStateResidencyTicks::UNDEFINED   9670004000                       # Cumulative time (in ticks) in various power states (Tick)
system.cpu.fetch.icacheStallCycles            7042186                       # Number of cycles fetch is stalled on an Icache miss (Cycle)
system.cpu.fetch.insts                       45879321                       # Number of instructions fetch has processed (Count)
system.cpu.fetch.branches                     9957333                       # Number of branches that fetch encountered (Count)
system.cpu.fetch.predictedBranches            6009982                       # Number of branches that fetch has predicted taken (Count)
system.cpu.fetch.cycles                      11207210                       # Number of cycles fetch has run and was not squashing or blocked (Cycle)
system.cpu.fetch.squashCycles                  386376                       # Number of cycles fetch has spent squashing (Cycle)
system.cpu.fetch.miscStallCycles                  256                       # Number of cycles fetch has spent waiting on interrupts, or bad addresses, or out of MSHRs (Cycle)
system.cpu.fetch.pendingTrapStallCycles           136                       # Number of stall cycles due to pending traps (Cycle)
system.cpu.fetch.icacheWaitRetryStallCycles           93                       # Number of stall cycles due to full MSHR (Cycle)
system.cpu.fetch.cacheLines                   5629266                       # Number of cache lines fetched (Count)
system.cpu.fetch.icacheSquashes                 66549                       # Number of outstanding Icache misses that were squashed (Count)
system.cpu.fetch.nisnDist::samples           18443069                       # Number of instructions fetched each cycle (Total) (Count)
system.cpu.fetch.nisnDist::mean              2.487624                       # Number of instructions fetched each cycle (Total) (Count)
system.cpu.fetch.nisnDist::stdev             2.961233                       # Number of instructions fetched each cycle (Total) (Count)
system.cpu.fetch.nisnDist::underflows               0      0.00%      0.00% # Number of instructions fetched each cycle (Total) (Count)
system.cpu.fetch.nisnDist::0                  8607181     46.67%     46.67% # Number of instructions fetched each cycle (Total) (Count)
system.cpu.fetch.nisnDist::1                  1338124      7.26%     53.92% # Number of instructions fetched each cycle (Total) (Count)
system.cpu.fetch.nisnDist::2                  1335582      7.24%     61.17% # Number of instructions fetched each cycle (Total) (Count)
system.cpu.fetch.nisnDist::3                  1043541      5.66%     66.82% # Number of instructions fetched each cycle (Total) (Count)
system.cpu.fetch.nisnDist::4                   918816      4.98%     71.81% # Number of instructions fetched each cycle (Total) (Count)
system.cpu.fetch.nisnDist::5                  1488689      8.07%     79.88% # Number of instructions fetched each cycle (Total) (Count)
system.cpu.fetch.nisnDist::6                   688619      3.73%     83.61% # Number of instructions fetched each cycle (Total) (Count)
system.cpu.fetch.nisnDist::7                   691058      3.75%     87.36% # Number of instructions fetched each cycle (Total) (Count)
system.cpu.fetch.nisnDist::8                  2331459     12.64%    100.00% # Number of instructions fetched each cycle (Total) (Count)
system.cpu.fetch.nisnDist::overflows                0      0.00%    100.00% # Number of instructions fetched each cycle (Total) (Count)
system.cpu.fetch.nisnDist::min_value                0                       # Number of instructions fetched each cycle (Total) (Count)
system.cpu.fetch.nisnDist::max_value                8                       # Number of instructions fetched each cycle (Total) (Count)
system.cpu.fetch.nisnDist::total             18443069                       # Number of instructions fetched each cycle (Total) (Count)
system.cpu.fetch.branchRate                  0.514857                       # Number of branch fetches per cycle (Ratio)
system.cpu.fetch.rate                        2.372249                       # Number of inst fetches per cycle ((Count/Cycle))
system.cpu.icache.demandHits::cpu.inst        5577835                       # number of demand (read+write) hits (Count)
system.cpu.icache.demandHits::total           5577835                       # number of demand (read+write) hits (Count)
system.cpu.icache.overallHits::cpu.inst       5577835                       # number of overall hits (Count)
system.cpu.icache.overallHits::total          5577835                       # number of overall hits (Count)
system.cpu.icache.demandMisses::cpu.inst        51427                       # number of demand (read+write) misses (Count)
system.cpu.icache.demandMisses::total           51427                       # number of demand (read+write) misses (Count)
system.cpu.icache.overallMisses::cpu.inst        51427                       # number of overall misses (Count)
system.cpu.icache.overallMisses::total          51427                       # number of overall misses (Count)
system.cpu.icache.demandMissLatency::cpu.inst   1221202999                       # number of demand (read+write) miss ticks (Tick)
system.cpu.icache.demandMissLatency::total   1221202999                       # number of demand (read+write) miss ticks (Tick)
system.cpu.icache.overallMissLatency::cpu.inst   1221202999                       # number of overall miss ticks (Tick)
system.cpu.icache.overallMissLatency::total   1221202999                       # number of overall miss ticks (Tick)
system.cpu.icache.demandAccesses::cpu.inst      5629262                       # number of demand (read+write) accesses (Count)
system.cpu.icache.demandAccesses::total       5629262                       # number of demand (read+write) accesses (Count)
system.cpu.icache.overallAccesses::cpu.inst      5629262                       # number of overall (read+write) accesses (Count)
system.cpu.icache.overallAccesses::total      5629262                       # number of overall (read+write) accesses (Count)
system.cpu.icache.demandMissRate::cpu.inst     0.009136                       # miss rate for demand accesses (Ratio)
system.cpu.icache.demandMissRate::total      0.009136                       # miss rate for demand accesses (Ratio)
system.cpu.icache.overallMissRate::cpu.inst     0.009136                       # miss rate for overall accesses (Ratio)
system.cpu.icache.overallMissRate::total     0.009136                       # miss rate for overall accesses (Ratio)
system.cpu.icache.demandAvgMissLatency::cpu.inst 23746.339452                       # average overall miss latency ((Cycle/Count))
system.cpu.icache.demandAvgMissLatency::total 23746.339452                       # average overall miss latency ((Cycle/Count))
system.cpu.icache.overallAvgMissLatency::cpu.inst 23746.339452                       # average overall miss latency ((Cycle/Count))
system.cpu.icache.overallAvgMissLatency::total 23746.339452                       # average overall miss latency ((Cycle/Count))
system.cpu.icache.blockedCycles::no_mshrs         1080                       # number of cycles access was blocked (Cycle)
system.cpu.icache.blockedCycles::no_targets            0                       # number of cycles access was blocked (Cycle)
system.cpu.icache.blockedCauses::no_mshrs           27                       # number of times access was blocked (Count)
system.cpu.icache.blockedCauses::no_targets            0                       # number of times access was blocked (Count)
system.cpu.icache.avgBlocked::no_mshrs             40                       # average number of cycles each access was blocked ((Cycle/Count))
system.cpu.icache.avgBlocked::no_targets          nan                       # average number of cycles each access was blocked ((Cycle/Count))
system.cpu.icache.writebacks::writebacks        49563                       # number of writebacks (Count)
system.cpu.icache.writebacks::total             49563                       # number of writebacks (Count)
system.cpu.icache.demandMshrHits::cpu.inst         1426                       # number of demand (read+write) MSHR hits (Count)
system.cpu.icache.demandMshrHits::total          1426                       # number of demand (read+write) MSHR hits (Count)
system.cpu.icache.overallMshrHits::cpu.inst         1426                       # number of overall MSHR hits (Count)
system.cpu.icache.overallMshrHits::total         1426                       # number of overall MSHR hits (Count)
system.cpu.icache.demandMshrMisses::cpu.inst        50001                       # number of demand (read+write) MSHR misses (Count)
system.cpu.icache.demandMshrMisses::total        50001                       # number of demand (read+write) MSHR misses (Count)
system.cpu.icache.overallMshrMisses::cpu.inst        50001                       # number of overall MSHR misses (Count)
system.cpu.icache.overallMshrMisses::total        50001                       # number of overall MSHR misses (Count)
system.cpu.icache.demandMshrMissLatency::cpu.inst   1144527500                       # number of demand (read+write) MSHR miss ticks (Tick)
system.cpu.icache.demandMshrMissLatency::total   1144527500                       # number of demand (read+write) MSHR miss ticks (Tick)
system.cpu.icache.overallMshrMissLatency::cpu.inst   1144527500                       # number of overall MSHR miss ticks (Tick)
system.cpu.icache.overallMshrMissLatency::total   1144527500                       # number of overall MSHR miss ticks (Tick)
system.cpu.icache.demandMshrMissRate::cpu.inst     0.008882                       # mshr miss ratio for demand accesses (Ratio)
system.cpu.icache.demandMshrMissRate::total     0.008882                       # mshr miss ratio for demand accesses (Ratio)
system.cpu.icache.overallMshrMissRate::cpu.inst     0.008882                       # mshr miss ratio for overall accesses (Ratio)
system.cpu.icache.overallMshrMissRate::total     0.008882                       # mshr miss ratio for overall accesses (Ratio)
system.cpu.icache.demandAvgMshrMissLatency::cpu.inst 22890.092198                       # average overall mshr miss latency ((Cycle/Count))
system.cpu.icache.demandAvgMshrMissLatency::total 22890.092198                       # average overall mshr miss latency ((Cycle/Count))
system.cpu.icache.overallAvgMshrMissLatency::cpu.inst 22890.092198                       # average overall mshr miss latency ((Cycle/Count))
system.cpu.icache.overallAvgMshrMissLatency::total 22890.092198                       # average overall mshr miss latency ((Cycle/Count))
system.cpu.icache.replacements                  49563                       # number of replacements (Count)
system.cpu.icache.ReadReq.hits::cpu.inst      5577835                       # number of ReadReq hits (Count)
system.cpu.icache.ReadReq.hits::total         5577835                       # number of ReadReq hits (Count)
system.cpu.icache.ReadReq.misses::cpu.inst        51427                       # number of ReadReq misses (Count)
system.cpu.icache.ReadReq.misses::total         51427                       # number of ReadReq misses (Count)
system.cpu.icache.ReadReq.missLatency::cpu.inst   1221202999                       # number of ReadReq miss ticks (Tick)
system.cpu.icache.ReadReq.missLatency::total   1221202999                       # number of ReadReq miss ticks (Tick)
system.cpu.icache.ReadReq.accesses::cpu.inst      5629262                       # number of ReadReq accesses(hits+misses) (Count)
system.cpu.icache.ReadReq.accesses::total      5629262                       # number of ReadReq accesses(hits+misses) (Count)
system.cpu.icache.ReadReq.missRate::cpu.inst     0.009136                       # miss rate for ReadReq accesses (Ratio)
system.cpu.icache.ReadReq.missRate::total     0.009136                       # miss rate for ReadReq accesses (Ratio)
system.cpu.icache.ReadReq.avgMissLatency::cpu.inst 23746.339452                       # average ReadReq miss latency ((Tick/Count))
system.cpu.icache.ReadReq.avgMissLatency::total 23746.339452                       # average ReadReq miss latency ((Tick/Count))
system.cpu.icache.ReadReq.mshrHits::cpu.inst         1426                       # number of ReadReq MSHR hits (Count)
system.cpu.icache.ReadReq.mshrHits::total         1426                       # number of ReadReq MSHR hits (Count)
system.cpu.icache.ReadReq.mshrMisses::cpu.inst        50001                       # number of ReadReq MSHR misses (Count)
system.cpu.icache.ReadReq.mshrMisses::total        50001                       # number of ReadReq MSHR misses (Count)
system.cpu.icache.ReadReq.mshrMissLatency::cpu.inst   1144527500                       # number of ReadReq MSHR miss ticks (Tick)
system.cpu.icache.ReadReq.mshrMissLatency::total   1144527500                       # number of ReadReq MSHR miss ticks (Tick)
system.cpu.icache.ReadReq.mshrMissRate::cpu.inst     0.008882                       # mshr miss rate for ReadReq accesses (Ratio)
system.cpu.icache.ReadReq.mshrMissRate::total     0.008882                       # mshr miss rate for ReadReq accesses (Ratio)
system.cpu.icache.ReadReq.avgMshrMissLatency::cpu.inst 22890.092198                       # average ReadReq mshr miss latency ((Tick/Count))
system.cpu.icache.ReadReq.avgMshrMissLatency::total 22890.092198                       # average ReadReq mshr miss latency ((Tick/Count))
system.cpu.icache.power_state.pwrStateResidencyTicks::UNDEFINED   9670004000                       # Cumulative time (in ticks) in various power states (Tick)
system.cpu.icache.tags.tagsInUse           374.059006                       # Average ticks per tags in use ((Tick/Count))
system.cpu.icache.tags.totalRefs              5627834                       # Total number of references to valid blocks. (Count)
system.cpu.icache.tags.sampledRefs              49999                       # Sample count of references to valid blocks. (Count)
system.cpu.icache.tags.avgRefs             112.558931                       # Average number of references to valid blocks. ((Count/Count))
system.cpu.icache.tags.warmupTick               77000                       # The tick when the warmup percentage was hit. (Tick)
system.cpu.icache.tags.occupancies::cpu.inst   374.059006                       # Average occupied blocks per tick, per requestor ((Count/Tick))
system.cpu.icache.tags.avgOccs::cpu.inst     0.730584                       # Average percentage of cache occupancy ((Ratio/Tick))
system.cpu.icache.tags.avgOccs::total        0.730584                       # Average percentage of cache occupancy ((Ratio/Tick))
system.cpu.icache.tags.occupanciesTaskId::1024          436                       # Occupied blocks per task id (Count)
system.cpu.icache.tags.ageTaskId_1024::0           96                       # Occupied blocks per task id, per block age (Count)
system.cpu.icache.tags.ageTaskId_1024::1           28                       # Occupied blocks per task id, per block age (Count)
system.cpu.icache.tags.ageTaskId_1024::2            1                       # Occupied blocks per task id, per block age (Count)
system.cpu.icache.tags.ageTaskId_1024::3          311                       # Occupied blocks per task id, per block age (Count)
system.cpu.icache.tags.ratioOccsTaskId::1024     0.851562                       # Ratio of occupied blocks and all blocks, per task id (Ratio)
system.cpu.icache.tags.tagAccesses           11308523                       # Number of tag accesses (Count)
system.cpu.icache.tags.dataAccesses          11308523                       # Number of data accesses (Count)
system.cpu.icache.tags.power_state.pwrStateResidencyTicks::UNDEFINED   9670004000                       # Cumulative time (in ticks) in various power states (Tick)
system.cpu.iew.idleCycles                           0                       # Number of cycles IEW is idle (Cycle)
system.cpu.iew.squashCycles                    180817                       # Number of cycles IEW is squashing (Cycle)
system.cpu.iew.blockCycles                     407939                       # Number of cycles IEW is blocking (Cycle)
system.cpu.iew.unblockCycles                   174174                       # Number of cycles IEW is unblocking (Cycle)
system.cpu.iew.dispatchedInsts               42903397                       # Number of instructions dispatched to IQ (Count)
system.cpu.iew.dispSquashedInsts               165281                       # Number of squashed instructions skipped by dispatch (Count)
system.cpu.iew.dispLoadInsts                  7756797                       # Number of dispatched load instructions (Count)
system.cpu.iew.dispStoreInsts                 4687945                       # Number of dispatched store instructions (Count)
system.cpu.iew.dispNonSpecInsts                 33266                       # Number of dispatched non-speculative instructions (Count)
system.cpu.iew.iqFullEvents                     54020                       # Number of times the IQ has become full, causing a stall (Count)
system.cpu.iew.lsqFullEvents                   110024                       # Number of times the LSQ has become full, causing a stall (Count)
system.cpu.iew.memOrderViolationEvents            362                       # Number of memory order violations (Count)
system.cpu.iew.predictedTakenIncorrect          80231                       # Number of branches that were predicted taken incorrectly (Count)
system.cpu.iew.predictedNotTakenIncorrect       115643                       # Number of branches that were predicted not taken incorrectly (Count)
system.cpu.iew.branchMispredicts               195874                       # Number of branch mispredicts detected at execute (Count)
[...]
system.mem_ctrls.dram.bwRead::total         385912560                       # Total read bandwidth from this memory ((Byte/Second))
system.mem_ctrls.dram.bwInstRead::cpu.inst    330913617                       # Instruction read bandwidth from this memory ((Byte/Second))
system.mem_ctrls.dram.bwInstRead::total     330913617                       # Instruction read bandwidth from this memory ((Byte/Second))
system.mem_ctrls.dram.bwWrite::writebacks     36533594                       # Write bandwidth from this memory ((Byte/Second))
system.mem_ctrls.dram.bwWrite::total         36533594                       # Write bandwidth from this memory ((Byte/Second))
system.mem_ctrls.dram.bwTotal::writebacks     36533594                       # Total bandwidth to/from this memory ((Byte/Second))
system.mem_ctrls.dram.bwTotal::cpu.inst     330913617                       # Total bandwidth to/from this memory ((Byte/Second))
system.mem_ctrls.dram.bwTotal::cpu.data      54998943                       # Total bandwidth to/from this memory ((Byte/Second))
system.mem_ctrls.dram.bwTotal::total        422446154                       # Total bandwidth to/from this memory ((Byte/Second))
system.mem_ctrls.dram.readBursts                 9123                       # Number of DRAM read bursts (Count)
system.mem_ctrls.dram.writeBursts                5950                       # Number of DRAM write bursts (Count)
system.mem_ctrls.dram.perBankRdBursts::0          628                       # Per bank write bursts (Count)
system.mem_ctrls.dram.perBankRdBursts::1          656                       # Per bank write bursts (Count)
system.mem_ctrls.dram.perBankRdBursts::2          575                       # Per bank write bursts (Count)
system.mem_ctrls.dram.perBankRdBursts::3          474                       # Per bank write bursts (Count)
system.mem_ctrls.dram.perBankRdBursts::4          474                       # Per bank write bursts (Count)
system.mem_ctrls.dram.perBankRdBursts::5          322                       # Per bank write bursts (Count)
system.mem_ctrls.dram.perBankRdBursts::6          595                       # Per bank write bursts (Count)
system.mem_ctrls.dram.perBankRdBursts::7          539                       # Per bank write bursts (Count)
system.mem_ctrls.dram.perBankRdBursts::8          551                       # Per bank write bursts (Count)
system.mem_ctrls.dram.perBankRdBursts::9          588                       # Per bank write bursts (Count)
system.mem_ctrls.dram.perBankRdBursts::10          697                       # Per bank write bursts (Count)
system.mem_ctrls.dram.perBankRdBursts::11          603                       # Per bank write bursts (Count)
system.mem_ctrls.dram.perBankRdBursts::12          593                       # Per bank write bursts (Count)
system.mem_ctrls.dram.perBankRdBursts::13          552                       # Per bank write bursts (Count)
system.mem_ctrls.dram.perBankRdBursts::14          603                       # Per bank write bursts (Count)
system.mem_ctrls.dram.perBankRdBursts::15          673                       # Per bank write bursts (Count)
system.mem_ctrls.dram.perBankWrBursts::0          380                       # Per bank write bursts (Count)
system.mem_ctrls.dram.perBankWrBursts::1          393                       # Per bank write bursts (Count)
system.mem_ctrls.dram.perBankWrBursts::2          313                       # Per bank write bursts (Count)
system.mem_ctrls.dram.perBankWrBursts::3          283                       # Per bank write bursts (Count)
system.mem_ctrls.dram.perBankWrBursts::4          358                       # Per bank write bursts (Count)
system.mem_ctrls.dram.perBankWrBursts::5          194                       # Per bank write bursts (Count)
system.mem_ctrls.dram.perBankWrBursts::6          403                       # Per bank write bursts (Count)
system.mem_ctrls.dram.perBankWrBursts::7          402                       # Per bank write bursts (Count)
system.mem_ctrls.dram.perBankWrBursts::8          349                       # Per bank write bursts (Count)
system.mem_ctrls.dram.perBankWrBursts::9          430                       # Per bank write bursts (Count)
system.mem_ctrls.dram.perBankWrBursts::10          442                       # Per bank write bursts (Count)
system.mem_ctrls.dram.perBankWrBursts::11          423                       # Per bank write bursts (Count)
system.mem_ctrls.dram.perBankWrBursts::12          350                       # Per bank write bursts (Count)
system.mem_ctrls.dram.perBankWrBursts::13          354                       # Per bank write bursts (Count)
system.mem_ctrls.dram.perBankWrBursts::14          463                       # Per bank write bursts (Count)
system.mem_ctrls.dram.perBankWrBursts::15          413                       # Per bank write bursts (Count)
system.mem_ctrls.dram.totQLat                86011750                       # Total ticks spent queuing (Tick)
system.mem_ctrls.dram.totBusLat              45615000                       # Total ticks spent in databus transfers (Tick)
system.mem_ctrls.dram.totMemAccLat          257068000                       # Total ticks spent from burst creation until serviced by the DRAM (Tick)
system.mem_ctrls.dram.avgQLat                 9428.01                       # Average queueing delay per DRAM burst ((Tick/Count))
system.mem_ctrls.dram.avgBusLat               5000.00                       # Average bus latency per DRAM burst ((Tick/Count))
system.mem_ctrls.dram.avgMemAccLat           28178.01                       # Average memory access latency per DRAM burst ((Tick/Count))
system.mem_ctrls.dram.readRowHits                7588                       # Number of row buffer hits during reads (Count)
system.mem_ctrls.dram.writeRowHits               5129                       # Number of row buffer hits during writes (Count)
system.mem_ctrls.dram.readRowHitRate            83.17                       # Row buffer hit rate for reads (Ratio)
system.mem_ctrls.dram.writeRowHitRate           86.20                       # Row buffer hit rate for writes (Ratio)
system.mem_ctrls.dram.bytesPerActivate::samples         2341                       # Bytes accessed per row activation (Byte)
system.mem_ctrls.dram.bytesPerActivate::mean   410.327211                       # Bytes accessed per row activation (Byte)
system.mem_ctrls.dram.bytesPerActivate::gmean   283.418570                       # Bytes accessed per row activation (Byte)
system.mem_ctrls.dram.bytesPerActivate::stdev   324.710244                       # Bytes accessed per row activation (Byte)
system.mem_ctrls.dram.bytesPerActivate::0-127          378     16.15%     16.15% # Bytes accessed per row activation (Byte)
system.mem_ctrls.dram.bytesPerActivate::128-255          619     26.44%     42.59% # Bytes accessed per row activation (Byte)
system.mem_ctrls.dram.bytesPerActivate::256-383          248     10.59%     53.18% # Bytes accessed per row activation (Byte)
system.mem_ctrls.dram.bytesPerActivate::384-511          195      8.33%     61.51% # Bytes accessed per row activation (Byte)
system.mem_ctrls.dram.bytesPerActivate::512-639          402     17.17%     78.68% # Bytes accessed per row activation (Byte)
system.mem_ctrls.dram.bytesPerActivate::640-767           42      1.79%     80.48% # Bytes accessed per row activation (Byte)
system.mem_ctrls.dram.bytesPerActivate::768-895           69      2.95%     83.43% # Bytes accessed per row activation (Byte)
system.mem_ctrls.dram.bytesPerActivate::896-1023           59      2.52%     85.95% # Bytes accessed per row activation (Byte)
system.mem_ctrls.dram.bytesPerActivate::1024-1151          329     14.05%    100.00% # Bytes accessed per row activation (Byte)
system.mem_ctrls.dram.bytesPerActivate::total         2341                       # Bytes accessed per row activation (Byte)
system.mem_ctrls.dram.bytesRead                583872                       # Total bytes read (Byte)
system.mem_ctrls.dram.bytesWritten             380800                       # Total bytes written (Byte)
system.mem_ctrls.dram.avgRdBW               60.379706                       # Average DRAM read bandwidth in MiBytes/s ((Byte/Second))
system.mem_ctrls.dram.avgWrBW               39.379508                       # Average DRAM write bandwidth in MiBytes/s ((Byte/Second))
system.mem_ctrls.dram.peakBW                 12800.00                       # Theoretical peak bandwidth in MiByte/s ((Byte/Second))
system.mem_ctrls.dram.busUtil                    0.78                       # Data bus utilization in percentage (Ratio)
system.mem_ctrls.dram.busUtilRead                0.47                       # Data bus utilization in percentage for reads (Ratio)
system.mem_ctrls.dram.busUtilWrite               0.31                       # Data bus utilization in percentage for writes (Ratio)
system.mem_ctrls.dram.pageHitRate               84.37                       # Row buffer hit rate, read and write combined (Ratio)
system.mem_ctrls.dram.power_state.pwrStateResidencyTicks::UNDEFINED   9670004000                       # Cumulative time (in ticks) in various power states (Tick)
system.mem_ctrls.dram.rank0.actEnergy         8089620                       # Energy for activate commands per rank (pJ) (Joule)
system.mem_ctrls.dram.rank0.preEnergy         4273170                       # Energy for precharge commands per rank (pJ) (Joule)
system.mem_ctrls.dram.rank0.readEnergy       30437820                       # Energy for read commands per rank (pJ) (Joule)
system.mem_ctrls.dram.rank0.writeEnergy      14229720                       # Energy for write commands per rank (pJ) (Joule)
system.mem_ctrls.dram.rank0.refreshEnergy 762768240.000000                       # Energy for refresh commands per rank (pJ) (Joule)
system.mem_ctrls.dram.rank0.actBackEnergy   1434696840                       # Energy for active background per rank (pJ) (Joule)
system.mem_ctrls.dram.rank0.preBackEnergy   2505116160                       # Energy for precharge background per rank (pJ) (Joule)
system.mem_ctrls.dram.rank0.actPowerDownEnergy            0                       # Energy for active power-down per rank (pJ) (Joule)
system.mem_ctrls.dram.rank0.prePowerDownEnergy            0                       # Energy for precharge power-down per rank (pJ) (Joule)
system.mem_ctrls.dram.rank0.selfRefreshEnergy            0                       # Energy for self refresh per rank (pJ) (Joule)
system.mem_ctrls.dram.rank0.totalEnergy    4759611570                       # Total energy per rank (pJ) (Joule)
system.mem_ctrls.dram.rank0.averagePower   492.203682                       # Core power per rank (mW) (Watt)
system.mem_ctrls.dram.rank0.totalIdleTime            0                       # Total Idle time Per DRAM Rank (Tick)
system.mem_ctrls.dram.rank0.pwrStateTime::IDLE   6499570250                       # Time in different power states (Tick)
system.mem_ctrls.dram.rank0.pwrStateTime::REF    322660000                       # Time in different power states (Tick)
system.mem_ctrls.dram.rank0.pwrStateTime::SREF            0                       # Time in different power states (Tick)
system.mem_ctrls.dram.rank0.pwrStateTime::PRE_PDN            0                       # Time in different power states (Tick)
system.mem_ctrls.dram.rank0.pwrStateTime::ACT   2847773750                       # Time in different power states (Tick)
system.mem_ctrls.dram.rank0.pwrStateTime::ACT_PDN            0                       # Time in different power states (Tick)
system.mem_ctrls.dram.rank1.actEnergy         8725080                       # Energy for activate commands per rank (pJ) (Joule)
system.mem_ctrls.dram.rank1.preEnergy         4610925                       # Energy for precharge commands per rank (pJ) (Joule)
system.mem_ctrls.dram.rank1.readEnergy       34686120                       # Energy for read commands per rank (pJ) (Joule)
system.mem_ctrls.dram.rank1.writeEnergy      16829280                       # Energy for write commands per rank (pJ) (Joule)
system.mem_ctrls.dram.rank1.refreshEnergy 762768240.000000                       # Energy for refresh commands per rank (pJ) (Joule)
system.mem_ctrls.dram.rank1.actBackEnergy   1379677020                       # Energy for active background per rank (pJ) (Joule)
system.mem_ctrls.dram.rank1.preBackEnergy   2551448640                       # Energy for precharge background per rank (pJ) (Joule)
system.mem_ctrls.dram.rank1.actPowerDownEnergy            0                       # Energy for active power-down per rank (pJ) (Joule)
system.mem_ctrls.dram.rank1.prePowerDownEnergy            0                       # Energy for precharge power-down per rank (pJ) (Joule)
system.mem_ctrls.dram.rank1.selfRefreshEnergy            0                       # Energy for self refresh per rank (pJ) (Joule)
system.mem_ctrls.dram.rank1.totalEnergy    4758745305                       # Total energy per rank (pJ) (Joule)
system.mem_ctrls.dram.rank1.averagePower   492.114099                       # Core power per rank (mW) (Watt)
system.mem_ctrls.dram.rank1.totalIdleTime            0                       # Total Idle time Per DRAM Rank (Tick)
system.mem_ctrls.dram.rank1.pwrStateTime::IDLE   6619861750                       # Time in different power states (Tick)
system.mem_ctrls.dram.rank1.pwrStateTime::REF    322660000                       # Time in different power states (Tick)
system.mem_ctrls.dram.rank1.pwrStateTime::SREF            0                       # Time in different power states (Tick)
system.mem_ctrls.dram.rank1.pwrStateTime::PRE_PDN            0                       # Time in different power states (Tick)
system.mem_ctrls.dram.rank1.pwrStateTime::ACT   2727482250                       # Time in different power states (Tick)
system.mem_ctrls.dram.rank1.pwrStateTime::ACT_PDN            0                       # Time in different power states (Tick)
system.mem_ctrls.power_state.pwrStateResidencyTicks::UNDEFINED   9670004000                       # Cumulative time (in ticks) in various power states (Tick)
system.membus.transDist::ReadResp               55566                       # Transaction distribution (Count)
system.membus.transDist::WritebackDirty          5520                       # Transaction distribution (Count)
system.membus.transDist::WritebackClean         49563                       # Transaction distribution (Count)
system.membus.transDist::CleanEvict               779                       # Transaction distribution (Count)
system.membus.transDist::ReadExReq               2742                       # Transaction distribution (Count)
system.membus.transDist::ReadExResp              2742                       # Transaction distribution (Count)
system.membus.transDist::ReadCleanReq           50001                       # Transaction distribution (Count)
system.membus.transDist::ReadSharedReq           5568                       # Transaction distribution (Count)
system.membus.transDist::InvalidateReq             38                       # Transaction distribution (Count)
system.membus.pktCount_system.cpu.icache.mem_side_port::system.mem_ctrls.port       149563                       # Packet count per connected requestor and responder (Count)
system.membus.pktCount_system.cpu.dcache.mem_side_port::system.mem_ctrls.port        22956                       # Packet count per connected requestor and responder (Count)
system.membus.pktCount::total                  172519                       # Packet count per connected requestor and responder (Count)
system.membus.pktSize_system.cpu.icache.mem_side_port::system.mem_ctrls.port      6371968                       # Cumulative packet size per connected requestor and responder (Byte)
system.membus.pktSize_system.cpu.dcache.mem_side_port::system.mem_ctrls.port       885056                       # Cumulative packet size per connected requestor and responder (Byte)
system.membus.pktSize::total                  7257024                       # Cumulative packet size per connected requestor and responder (Byte)
system.membus.snoops                                0                       # Total snoops (Count)
system.membus.snoopTraffic                          0                       # Total snoop traffic (Byte)
system.membus.snoopFanout::samples              58349                       # Request fanout histogram (Count)
system.membus.snoopFanout::mean                     0                       # Request fanout histogram (Count)
system.membus.snoopFanout::stdev                    0                       # Request fanout histogram (Count)
system.membus.snoopFanout::underflows               0      0.00%      0.00% # Request fanout histogram (Count)
system.membus.snoopFanout::0                    58349    100.00%    100.00% # Request fanout histogram (Count)
system.membus.snoopFanout::1                        0      0.00%    100.00% # Request fanout histogram (Count)
system.membus.snoopFanout::2                        0      0.00%    100.00% # Request fanout histogram (Count)
system.membus.snoopFanout::3                        0      0.00%    100.00% # Request fanout histogram (Count)
system.membus.snoopFanout::4                        0      0.00%    100.00% # Request fanout histogram (Count)
system.membus.snoopFanout::overflows                0      0.00%    100.00% # Request fanout histogram (Count)
system.membus.snoopFanout::min_value                0                       # Request fanout histogram (Count)
system.membus.snoopFanout::max_value                0                       # Request fanout histogram (Count)
system.membus.snoopFanout::total                58349                       # Request fanout histogram (Count)
system.membus.power_state.pwrStateResidencyTicks::UNDEFINED   9670004000                       # Cumulative time (in ticks) in various power states (Tick)
system.membus.reqLayer0.occupancy           346880000                       # Layer occupancy (ticks) (Tick)
system.membus.reqLayer0.utilization               0.0                       # Layer utilization (Ratio)
system.membus.respLayer1.occupancy          250248500                       # Layer occupancy (ticks) (Tick)
system.membus.respLayer1.utilization              0.0                       # Layer utilization (Ratio)
system.membus.respLayer2.occupancy           43883750                       # Layer occupancy (ticks) (Tick)
system.membus.respLayer2.utilization              0.0                       # Layer utilization (Ratio)
system.membus.snoop_filter.totRequests         114211                       # Total number of requests made to the snoop filter. (Count)
system.membus.snoop_filter.hitSingleRequests        55862                       # Number of requests hitting in the snoop filter with a single holder of the requested data. (Count)
system.membus.snoop_filter.hitMultiRequests            0                       # Number of requests hitting in the snoop filter with multiple (>1) holders of the requested data. (Count)
system.membus.snoop_filter.totSnoops                0                       # Total number of snoops made to the snoop filter. (Count)
system.membus.snoop_filter.hitSingleSnoops            0                       # Number of snoops hitting in the snoop filter with a single holder of the requested data. (Count)
system.membus.snoop_filter.hitMultiSnoops            0                       # Number of snoops hitting in the snoop filter with multiple (>1) holders of the requested data. (Count)
system.voltage_domain.voltage                       1                       # Voltage in Volts (Volt)
system.workload.inst.arm                            0                       # number of arm instructions executed (Count)
system.workload.inst.quiesce                        0                       # number of quiesce instructions executed (Count)

---------- End Simulation Statistics   ----------
