
---------- Begin Simulation Statistics ----------
simSeconds                                   0.015088                       # Number of seconds simulated (Second)
simTicks                                  15088034500                       # Number of ticks simulated (Tick)
finalTick                                 15088034500                       # Number of ticks from beginning of simulation (restored from checkpoints and never reset) (Tick)
simFreq                                  1000000000000                       # The number of ticks per simulated second ((Tick/Second))
hostSeconds                                     55.60                       # Real time elapsed on the host (Second)
hostTickRate                                271347142                       # The number of ticks simulated per host second (ticks/s) ((Tick/Second))
hostMemory                                     640016                       # Number of bytes of host memory used (Byte)
simInsts                                     39561848                       # Number of instructions simulated (Count)
simOps                                       39561863                       # Number of ops (including micro ops) simulated (Count)
hostInstRate                                   711490                       # Simulator instruction rate (inst/s) ((Count/Second))
hostOpRate                                     711490                       # Simulator op (including micro ops) rate (op/s) ((Count/Second))
system.clk_domain.clock                          1000                       # Clock period in ticks (Tick)
system.cpu.numCycles                         30176070                       # Number of cpu cycles simulated (Cycle)
system.cpu.numWorkItemsStarted                      0                       # Number of work items this cpu started (Count)
system.cpu.numWorkItemsCompleted                    0                       # Number of work items this cpu completed (Count)
system.cpu.instsAdded                        43373918                       # Number of instructions added to the IQ (excludes non-spec) (Count)
system.cpu.nonSpecInstsAdded                    33370                       # Number of non-speculative instructions added to the IQ (Count)
system.cpu.instsIssued                       42663052                       # Number of instructions issued (Count)
system.cpu.squashedInstsIssued                  85620                       # Number of squashed instructions issued (Count)
system.cpu.squashedInstsExamined              3845424                       # Number of squashed instructions iterated over during squash; mainly for profiling (Count)
system.cpu.squashedOperandsExamined           1969575                       # Number of squashed operands that are examined and possibly removed from graph (Count)
system.cpu.squashedNonSpecRemoved                4622                       # Number of squashed non-spec instructions that were removed (Count)
system.cpu.numIssuedDist::samples            29431596                       # Number of insts issued each cycle (Count)
system.cpu.numIssuedDist::mean               1.449566                       # Number of insts issued each cycle (Count)
system.cpu.numIssuedDist::stdev              2.025732                       # Number of insts issued each cycle (Count)
system.cpu.numIssuedDist::underflows                0      0.00%      0.00% # Number of insts issued each cycle (Count)
system.cpu.numIssuedDist::0                  15578389     52.93%     52.93% # Number of insts issued each cycle (Count)
system.cpu.numIssuedDist::1                   3629749     12.33%     65.26% # Number of insts issued each cycle (Count)
system.cpu.numIssuedDist::2                   2881528      9.79%     75.05% # Number of insts issued each cycle (Count)
system.cpu.numIssuedDist::3                   2438765      8.29%     83.34% # Number of insts issued each cycle (Count)
system.cpu.numIssuedDist::4                   1766946      6.00%     89.34% # Number of insts issued each cycle (Count)
system.cpu.numIssuedDist::5                   1283196      4.36%     93.70% # Number of insts issued each cycle (Count)
system.cpu.numIssuedDist::6                    939419      3.19%     96.90% # Number of insts issued each cycle (Count)
system.cpu.numIssuedDist::7                    475158      1.61%     98.51% # Number of insts issued each cycle (Count)
system.cpu.numIssuedDist::8                    438446      1.49%    100.00% # Number of insts issued each cycle (Count)
system.cpu.numIssuedDist::overflows                 0      0.00%    100.00% # Number of insts issued each cycle (Count)
system.cpu.numIssuedDist::min_value                 0                       # Number of insts issued each cycle (Count)
system.cpu.numIssuedDist::max_value                 8                       # Number of insts issued each cycle (Count)
system.cpu.numIssuedDist::total              29431596                       # Number of insts issued each cycle (Count)
system.cpu.statFuBusy::No_OpClass                   0      0.00%      0.00% # attempts to use FU when none available (Count)
system.cpu.statFuBusy::IntAlu                  307249     23.06%     23.06% # attempts to use FU when none available (Count)
system.cpu.statFuBusy::IntMult                  81661      6.13%     29.19% # attempts to use FU when none available (Count)
system.cpu.statFuBusy::IntDiv                    1468      0.11%     29.30% # attempts to use FU when none available (Count)
system.cpu.statFuBusy::FloatAdd                    14      0.00%     29.30% # attempts to use FU when none available (Count)
system.cpu.statFuBusy::FloatCmp                   519      0.04%     29.34% # attempts to use FU when none available (Count)
system.cpu.statFuBusy::FloatCvt                     0      0.00%     29.34% # attempts to use FU when none available (Count)
system.cpu.statFuBusy::FloatMult                    0      0.00%     29.34% # attempts to use FU when none available (Count)
system.cpu.statFuBusy::FloatMultAcc             25033      1.88%     31.22% # attempts to use FU when none available (Count)
system.cpu.statFuBusy::FloatDiv                     0      0.00%     31.22% # attempts to use FU when none available (Count)
system.cpu.statFuBusy::FloatMisc                    0      0.00%     31.22% # attempts to use FU when none available (Count)
system.cpu.statFuBusy::FloatSqrt                    0      0.00%     31.22% # attempts to use FU when none available (Count)
system.cpu.statFuBusy::SimdAdd                      0      0.00%     31.22% # attempts to use FU when none available (Count)
system.cpu.statFuBusy::SimdAddAcc                   0      0.00%     31.22% # attempts to use FU when none available (Count)
system.cpu.statFuBusy::SimdAlu                      0      0.00%     31.22% # attempts to use FU when none available (Count)
system.cpu.statFuBusy::SimdCmp                      0      0.00%     31.22% # attempts to use FU when none available (Count)
system.cpu.statFuBusy::SimdCvt                      0      0.00%     31.22% # attempts to use FU when none available (Count)
system.cpu.statFuBusy::SimdMisc                     0      0.00%     31.22% # attempts to use FU when none available (Count)
system.cpu.statFuBusy::SimdMult                     0      0.00%     31.22% # attempts to use FU when none available (Count)
system.cpu.statFuBusy::SimdMultAcc                  0      0.00%     31.22% # attempts to use FU when none available (Count)
system.cpu.statFuBusy::SimdShift                    0      0.00%     31.22% # attempts to use FU when none available (Count)
system.cpu.statFuBusy::SimdShiftAcc                 0      0.00%     31.22% # attempts to use FU when none available (Count)
system.cpu.statFuBusy::SimdDiv                      0      0.00%     31.22% # attempts to use FU when none available (Count)
system.cpu.statFuBusy::SimdSqrt                     0      0.00%     31.22% # attempts to use FU when none available (Count)
system.cpu.statFuBusy::SimdFloatAdd                 0      0.00%     31.22% # attempts to use FU when none available (Count)
system.cpu.statFuBusy::SimdFloatAlu                 0      0.00%     31.22% # attempts to use FU when none available (Count)
system.cpu.statFuBusy::SimdFloatCmp                 0      0.00%     31.22% # attempts to use FU when none available (Count)
system.cpu.statFuBusy::SimdFloatCvt                 0      0.00%     31.22% # attempts to use FU when none available (Count)
system.cpu.statFuBusy::SimdFloatDiv                 0      0.00%     31.22% # attempts to use FU when none available (Count)
system.cpu.statFuBusy::SimdFloatMisc                0      0.00%     31.22% # attempts to use FU when none available (Count)
system.cpu.statFuBusy::SimdFloatMult                0      0.00%     31.22% # attempts to use FU when none available (Count)
system.cpu.statFuBusy::SimdFloatMultAcc             0      0.00%     31.22% # attempts to use FU when none available (Count)
system.cpu.statFuBusy::SimdFloatSqrt                0      0.00%     31.22% # attempts to use FU when none available (Count)
system.cpu.statFuBusy::SimdReduceAdd                0      0.00%     31.22% # attempts to use FU when none available (Count)
system.cpu.statFuBusy::SimdReduceAlu                0      0.00%     31.22% # attempts to use FU when none available (Count)
system.cpu.statFuBusy::SimdReduceCmp                0      0.00%     31.22% # attempts to use FU when none available (Count)
system.cpu.statFuBusy::SimdFloatReduceAdd            0      0.00%     31.22% # attempts to use FU when none available (Count)
system.cpu.statFuBusy::SimdFloatReduceCmp            0      0.00%     31.22% # attempts to use FU when none available (Count)
system.cpu.statFuBusy::SimdAes                      0      0.00%     31.22% # attempts to use FU when none available (Count)
system.cpu.statFuBusy::SimdAesMix                   0      0.00%     31.22% # attempts to use FU when none available (Count)
system.cpu.statFuBusy::SimdSha1Hash                 0      0.00%     31.22% # attempts to use FU when none available (Count)
system.cpu.statFuBusy::SimdSha1Hash2                0      0.00%     31.22% # attempts to use FU when none available (Count)
system.cpu.statFuBusy::SimdSha256Hash               0      0.00%     31.22% # attempts to use FU when none available (Count)
system.cpu.statFuBusy::SimdSha256Hash2              0      0.00%     31.22% # attempts to use FU when none available (Count)
system.cpu.statFuBusy::SimdShaSigma2                0      0.00%     31.22% # attempts to use FU when none available (Count)
system.cpu.statFuBusy::SimdShaSigma3                0      0.00%     31.22% # attempts to use FU when none available (Count)
system.cpu.statFuBusy::SimdPredAlu                  0      0.00%     31.22% # attempts to use FU when none available (Count)
system.cpu.statFuBusy::MemRead                 414793     31.13%     62.35% # attempts to use FU when none available (Count)
system.cpu.statFuBusy::MemWrite                444513     33.36%     95.71% # attempts to use FU when none available (Count)
system.cpu.statFuBusy::FloatMemRead             57217      4.29%    100.00% # attempts to use FU when none available (Count)
system.cpu.statFuBusy::FloatMemWrite                6      0.00%    100.00% # attempts to use FU when none available (Count)
system.cpu.statFuBusy::IprAccess                    0      0.00%    100.00% # attempts to use FU when none available (Count)
system.cpu.statFuBusy::InstPrefetch                 0      0.00%    100.00% # attempts to use FU when none available (Count)
system.cpu.statIssuedInstType_0::No_OpClass        28748      0.07%      0.07% # Number of instructions issued per FU type, per thread (Count)
system.cpu.statIssuedInstType_0::IntAlu      28779034     67.46%     67.52% # Number of instructions issued per FU type, per thread (Count)
system.cpu.statIssuedInstType_0::IntMult       480107      1.13%     68.65% # Number of instructions issued per FU type, per thread (Count)
system.cpu.statIssuedInstType_0::IntDiv        317917      0.75%     69.39% # Number of instructions issued per FU type, per thread (Count)
system.cpu.statIssuedInstType_0::FloatAdd        16384      0.04%     69.43% # Number of instructions issued per FU type, per thread (Count)
system.cpu.statIssuedInstType_0::FloatCmp        16384      0.04%     69.47% # Number of instructions issued per FU type, per thread (Count)
system.cpu.statIssuedInstType_0::FloatCvt        24576      0.06%     69.53% # Number of instructions issued per FU type, per thread (Count)
system.cpu.statIssuedInstType_0::FloatMult            0      0.00%     69.53% # Number of instructions issued per FU type, per thread (Count)
system.cpu.statIssuedInstType_0::FloatMultAcc       262144      0.61%     70.14% # Number of instructions issued per FU type, per thread (Count)
system.cpu.statIssuedInstType_0::FloatDiv            0      0.00%     70.14% # Number of instructions issued per FU type, per thread (Count)
system.cpu.statIssuedInstType_0::FloatMisc        16387      0.04%     70.18% # Number of instructions issued per FU type, per thread (Count)
system.cpu.statIssuedInstType_0::FloatSqrt            0      0.00%     70.18% # Number of instructions issued per FU type, per thread (Count)
system.cpu.statIssuedInstType_0::SimdAdd            0      0.00%     70.18% # Number of instructions issued per FU type, per thread (Count)
system.cpu.statIssuedInstType_0::SimdAddAcc            0      0.00%     70.18% # Number of instructions issued per FU type, per thread (Count)
system.cpu.statIssuedInstType_0::SimdAlu            0      0.00%     70.18% # Number of instructions issued per FU type, per thread (Count)
system.cpu.statIssuedInstType_0::SimdCmp            0      0.00%     70.18% # Number of instructions issued per FU type, per thread (Count)
system.cpu.statIssuedInstType_0::SimdCvt            0      0.00%     70.18% # Number of instructions issued per FU type, per thread (Count)
system.cpu.statIssuedInstType_0::SimdMisc            0      0.00%     70.18% # Number of instructions issued per FU type, per thread (Count)
system.cpu.statIssuedInstType_0::SimdMult            0      0.00%     70.18% # Number of instructions issued per FU type, per thread (Count)
system.cpu.statIssuedInstType_0::SimdMultAcc            0      0.00%     70.18% # Number of instructions issued per FU type, per thread (Count)
system.cpu.statIssuedInstType_0::SimdShift            0      0.00%     70.18% # Number of instructions issued per FU type, per thread (Count)
system.cpu.statIssuedInstType_0::SimdShiftAcc            0      0.00%     70.18% # Number of instructions issued per FU type, per thread (Count)
system.cpu.statIssuedInstType_0::SimdDiv            0      0.00%     70.18% # Number of instructions issued per FU type, per thread (Count)
system.cpu.statIssuedInstType_0::SimdSqrt            0      0.00%     70.18% # Number of instructions issued per FU type, per thread (Count)
system.cpu.statIssuedInstType_0::SimdFloatAdd            0      0.00%     70.18% # Number of instructions issued per FU type, per thread (Count)
system.cpu.statIssuedInstType_0::SimdFloatAlu            0      0.00%     70.18% # Number of instructions issued per FU type, per thread (Count)
system.cpu.statIssuedInstType_0::SimdFloatCmp            0      0.00%     70.18% # Number of instructions issued per FU type, per thread (Count)
system.cpu.statIssuedInstType_0::SimdFloatCvt            0      0.00%     70.18% # Number of instructions issued per FU type, per thread (Count)
system.cpu.statIssuedInstType_0::SimdFloatDiv            0      0.00%     70.18% # Number of instructions issued per FU type, per thread (Count)
system.cpu.statIssuedInstType_0::SimdFloatMisc            0      0.00%     70.18% # Number of instructions issued per FU type, per thread (Count)
system.cpu.statIssuedInstType_0::SimdFloatMult            0      0.00%     70.18% # Number of instructions issued per FU type, per thread (Count)
system.cpu.statIssuedInstType_0::SimdFloatMultAcc            0      0.00%     70.18% # Number of instructions issued per FU type, per thread (Count)
system.cpu.statIssuedInstType_0::SimdFloatSqrt            0      0.00%     70.18% # Number of instructions issued per FU type, per thread (Count)
system.cpu.statIssuedInstType_0::SimdReduceAdd            0      0.00%     70.18% # Number of instructions issued per FU type, per thread (Count)
system.cpu.statIssuedInstType_0::SimdReduceAlu            0      0.00%     70.18% # Number of instructions issued per FU type, per thread (Count)
system.cpu.statIssuedInstType_0::SimdReduceCmp            0      0.00%     70.18% # Number of instructions issued per FU type, per thread (Count)
system.cpu.statIssuedInstType_0::SimdFloatReduceAdd            0      0.00%     70.18% # Number of instructions issued per FU type, per thread (Count)
system.cpu.statIssuedInstType_0::SimdFloatReduceCmp            0      0.00%     70.18% # Number of instructions issued per FU type, per thread (Count)
system.cpu.statIssuedInstType_0::SimdAes            0      0.00%     70.18% # Number of instructions issued per FU type, per thread (Count)
system.cpu.statIssuedInstType_0::SimdAesMix            0      0.00%     70.18% # Number of instructions issued per FU type, per thread (Count)
system.cpu.statIssuedInstType_0::SimdSha1Hash            0      0.00%     70.18% # Number of instructions issued per FU type, per thread (Count)
system.cpu.statIssuedInstType_0::SimdSha1Hash2            0      0.00%     70.18% # Number of instructions issued per FU type, per thread (Count)
system.cpu.statIssuedInstType_0::SimdSha256Hash            0      0.00%     70.18% # Number of instructions issued per FU type, per thread (Count)
system.cpu.statIssuedInstType_0::SimdSha256Hash2            0      0.00%     70.18% # Number of instructions issued per FU type, per thread (Count)
system.cpu.statIssuedInstType_0::SimdShaSigma2            0      0.00%     70.18% # Number of instructions issued per FU type, per thread (Count)
system.cpu.statIssuedInstType_0::SimdShaSigma3            0      0.00%     70.18% # Number of instructions issued per FU type, per thread (Count)
system.cpu.statIssuedInstType_0::SimdPredAlu            0      0.00%     70.18% # Number of instructions issued per FU type, per thread (Count)
system.cpu.statIssuedInstType_0::MemRead      7437016     17.43%     87.61% # Number of instructions issued per FU type, per thread (Count)
system.cpu.statIssuedInstType_0::MemWrite      4348350     10.19%     97.81% # Number of instructions issued per FU type, per thread (Count)
system.cpu.statIssuedInstType_0::FloatMemRead       645162      1.51%     99.32% # Number of instructions issued per FU type, per thread (Count)
system.cpu.statIssuedInstType_0::FloatMemWrite       290843      0.68%    100.00% # Number of instructions issued per FU type, per thread (Count)
system.cpu.statIssuedInstType_0::IprAccess            0      0.00%    100.00% # Number of instructions issued per FU type, per thread (Count)
system.cpu.statIssuedInstType_0::InstPrefetch            0      0.00%    100.00% # Number of instructions issued per FU type, per thread (Count)
system.cpu.statIssuedInstType_0::total       42663052                       # Number of instructions issued per FU type, per thread (Count)
system.cpu.issueRate                         1.413804                       # Inst issue rate ((Count/Cycle))
system.cpu.fuBusy                             1332473                       # FU busy when requested (Count)
system.cpu.fuBusyRate                        0.031232                       # FU busy rate (busy events/executed inst) ((Count/Count))
system.cpu.intInstQueueReads                113548363                       # Number of integer instruction queue reads (Count)
system.cpu.intInstQueueWrites                46211428                       # Number of integer instruction queue writes (Count)
system.cpu.intInstQueueWakeupAccesses        40855250                       # Number of integer instruction queue wakeup accesses (Count)
system.cpu.fpInstQueueReads                   2627430                       # Number of floating instruction queue reads (Count)
system.cpu.fpInstQueueWrites                  1041952                       # Number of floating instruction queue writes (Count)
system.cpu.fpInstQueueWakeupAccesses           995357                       # Number of floating instruction queue wakeup accesses (Count)
system.cpu.vecInstQueueReads                        0                       # Number of vector instruction queue reads (Count)
system.cpu.vecInstQueueWrites                       0                       # Number of vector instruction queue writes (Count)
system.cpu.vecInstQueueWakeupAccesses               0                       # Number of vector instruction queue wakeup accesses (Count)
system.cpu.intAluAccesses                    42612108                       # Number of integer alu accesses (Count)
system.cpu.fpAluAccesses                      1354669                       # Number of floating point alu accesses (Count)
system.cpu.vecAluAccesses                           0                       # Number of vector alu accesses (Count)
system.cpu.numInsts                          42363431                       # Number of executed instructions (Count)
system.cpu.numLoadInsts                       7980995                       # Number of load instructions executed (Count)
system.cpu.numSquashedInsts                    299621                       # Number of squashed instructions skipped in execute (Count)
system.cpu.numSwp                                   0                       # Number of swp insts executed (Count)
system.cpu.numNop                                   0                       # Number of nop insts executed (Count)
system.cpu.numRefs                           12604626                       # Number of memory reference insts executed (Count)
system.cpu.numBranches                        8781007                       # Number of branches executed (Count)
system.cpu.numStoreInsts                      4623631                       # Number of stores executed (Count)
system.cpu.numRate                           1.403875                       # Inst execution rate ((Count/Cycle))
system.cpu.timesIdled                           44701                       # Number of times that the entire CPU went into an idle state and unscheduled itself (Count)
system.cpu.idleCycles                          744474                       # Total number of cycles that the CPU has spent unscheduled due to idling (Cycle)
system.cpu.committedInsts                    39561848                       # Number of Instructions Simulated (Count)
system.cpu.committedOps                      39561863                       # Number of Ops (including micro ops) Simulated (Count)
system.cpu.cpi                               0.762757                       # CPI: Cycles Per Instruction ((Cycle/Count))
system.cpu.totalCpi                          0.762757                       # CPI: Total CPI of All Threads ((Cycle/Count))
system.cpu.ipc                               1.311034                       # IPC: Instructions Per Cycle ((Count/Cycle))
system.cpu.totalIpc                          1.311034                       # IPC: Total IPC of All Threads ((Count/Cycle))
system.cpu.intRegfileReads                   53335936                       # Number of integer regfile reads (Count)
system.cpu.intRegfileWrites                  28521433                       # Number of integer regfile writes (Count)
system.cpu.fpRegfileReads                     1179681                       # Number of floating regfile reads (Count)
system.cpu.fpRegfileWrites                     685108                       # Number of floating regfile writes (Count)
system.cpu.miscRegfileReads                   1623140                       # number of misc regfile reads (Count)
system.cpu.miscRegfileWrites                   335872                       # number of misc regfile writes (Count)
system.cpu.MemDepUnit__0.insertedLoads        7855014                       # Number of loads inserted to the mem dependence unit. (Count)
system.cpu.MemDepUnit__0.insertedStores       4751717                       # Number of stores inserted to the mem dependence unit. (Count)
system.cpu.MemDepUnit__0.conflictingLoads       908688                       # Number of conflicting loads. (Count)
system.cpu.MemDepUnit__0.conflictingStores       550990                       # Number of conflicting stores. (Count)
system.cpu.MemDepUnit__1.insertedLoads              0                       # Number of loads inserted to the mem dependence unit. (Count)
system.cpu.MemDepUnit__1.insertedStores             0                       # Number of stores inserted to the mem dependence unit. (Count)
system.cpu.MemDepUnit__1.conflictingLoads            0                       # Number of conflicting loads. (Count)
system.cpu.MemDepUnit__1.conflictingStores            0                       # Number of conflicting stores. (Count)
system.cpu.MemDepUnit__2.insertedLoads              0                       # Number of loads inserted to the mem dependence unit. (Count)
system.cpu.MemDepUnit__2.insertedStores             0                       # Number of stores inserted to the mem dependence unit. (Count)
system.cpu.MemDepUnit__2.conflictingLoads            0                       # Number of conflicting loads. (Count)
system.cpu.MemDepUnit__2.conflictingStores            0                       # Number of conflicting stores. (Count)
system.cpu.MemDepUnit__3.insertedLoads              0                       # Number of loads inserted to the mem dependence unit. (Count)
system.cpu.MemDepUnit__3.insertedStores             0                       # Number of stores inserted to the mem dependence unit. (Count)
system.cpu.MemDepUnit__3.conflictingLoads            0                       # Number of conflicting loads. (Count)
system.cpu.MemDepUnit__3.conflictingStores            0                       # Number of conflicting stores. (Count)
system.cpu.branchPred.lookups                10315469                       # Number of BP lookups (Count)
system.cpu.branchPred.condPredicted           7810007                       # Number of conditional branches predicted (Count)
system.cpu.branchPred.condIncorrect            194797                       # Number of conditional branches incorrect (Count)
system.cpu.branchPred.BTBLookups              5617359                       # Number of BTB lookups (Count)
system.cpu.branchPred.BTBHits                 5593063                       # Number of BTB hits (Count)
system.cpu.branchPred.BTBHitRatio            0.995675                       # BTB Hit Ratio (Ratio)
system.cpu.branchPred.RASUsed                       0                       # Number of times the RAS was used to get a target. (Count)
system.cpu.branchPred.RASIncorrect                  0                       # Number of incorrect RAS predictions. (Count)
system.cpu.branchPred.indirectLookups          597017                       # Number of indirect predictor lookups. (Count)
system.cpu.branchPred.indirectHits             594703                       # Number of indirect target hits. (Count)
system.cpu.branchPred.indirectMisses             2314                       # Number of indirect misses. (Count)
system.cpu.branchPred.indirectMispredicted        19977                       # Number of mispredicted indirect branches. (Count)
system.cpu.commit.commitSquashedInsts         3845122                       # The number of squashed insts skipped by commit (Count)
system.cpu.commit.commitNonSpecStalls           28748                       # The number of times commit has been forced to stall to communicate backwards (Count)
system.cpu.commit.branchMispredicts            182300                       # The number of times a branch was mispredicted (Count)
system.cpu.commit.numCommittedDist::samples     28838951                       # Number of insts commited each cycle (Count)
system.cpu.commit.numCommittedDist::mean     1.371820                       # Number of insts commited each cycle (Count)
system.cpu.commit.numCommittedDist::stdev     2.602595                       # Number of insts commited each cycle (Count)
system.cpu.commit.numCommittedDist::underflows            0      0.00%      0.00% # Number of insts commited each cycle (Count)
system.cpu.commit.numCommittedDist::0        19684964     68.26%     68.26% # Number of insts commited each cycle (Count)
system.cpu.commit.numCommittedDist::1         2533748      8.79%     77.04% # Number of insts commited each cycle (Count)
system.cpu.commit.numCommittedDist::2         1150697      3.99%     81.03% # Number of insts commited each cycle (Count)
system.cpu.commit.numCommittedDist::3          911225      3.16%     84.19% # Number of insts commited each cycle (Count)
system.cpu.commit.numCommittedDist::4          494044      1.71%     85.91% # Number of insts commited each cycle (Count)
system.cpu.commit.numCommittedDist::5          467131      1.62%     87.53% # Number of insts commited each cycle (Count)
system.cpu.commit.numCommittedDist::6          456839      1.58%     89.11% # Number of insts commited each cycle (Count)
system.cpu.commit.numCommittedDist::7          182243      0.63%     89.74% # Number of insts commited each cycle (Count)
system.cpu.commit.numCommittedDist::8         2958060     10.26%    100.00% # Number of insts commited each cycle (Count)
system.cpu.commit.numCommittedDist::overflows            0      0.00%    100.00% # Number of insts commited each cycle (Count)
system.cpu.commit.numCommittedDist::min_value            0                       # Number of insts commited each cycle (Count)
system.cpu.commit.numCommittedDist::max_value            8                       # Number of insts commited each cycle (Count)
system.cpu.commit.numCommittedDist::total     28838951                       # Number of insts commited each cycle (Count)
system.cpu.commit.instsCommitted             39561848                       # Number of instructions committed (Count)
system.cpu.commit.opsCommitted               39561863                       # Number of ops (including micro ops) committed (Count)
system.cpu.commit.memRefs                    11515197                       # Number of memory references committed (Count)
system.cpu.commit.loads                       7164559                       # Number of loads committed (Count)
system.cpu.commit.amos                             17                       # Number of atomic instructions committed (Count)
system.cpu.commit.membars                          25                       # Number of memory barriers committed (Count)
system.cpu.commit.branches                    8127089                       # Number of branches committed (Count)
system.cpu.commit.vectorInstructions                0                       # Number of committed Vector instructions. (Count)
system.cpu.commit.floating                     995348                       # Number of committed floating point instructions. (Count)
system.cpu.commit.integer                    38444128                       # Number of committed integer instructions. (Count)
system.cpu.commit.functionCalls               1174816                       # Number of function calls committed. (Count)
system.cpu.commit.committedInstType_0::No_OpClass        24601      0.06%      0.06% # Class of committed instruction (Count)
system.cpu.commit.committedInstType_0::IntAlu     26890436     67.97%     68.03% # Class of committed instruction (Count)
system.cpu.commit.committedInstType_0::IntMult       479462      1.21%     69.24% # Class of committed instruction (Count)
system.cpu.commit.committedInstType_0::IntDiv       316295      0.80%     70.04% # Class of committed instruction (Count)
system.cpu.commit.committedInstType_0::FloatAdd        16384      0.04%     70.09% # Class of committed instruction (Count)
system.cpu.commit.committedInstType_0::FloatCmp        16384      0.04%     70.13% # Class of committed instruction (Count)
system.cpu.commit.committedInstType_0::FloatCvt        24576      0.06%     70.19% # Class of committed instruction (Count)
system.cpu.commit.committedInstType_0::FloatMult            0      0.00%     70.19% # Class of committed instruction (Count)
system.cpu.commit.committedInstType_0::FloatMultAcc       262144      0.66%     70.85% # Class of committed instruction (Count)
system.cpu.commit.committedInstType_0::FloatDiv            0      0.00%     70.85% # Class of committed instruction (Count)
system.cpu.commit.committedInstType_0::FloatMisc        16384      0.04%     70.89% # Class of committed instruction (Count)
system.cpu.commit.committedInstType_0::FloatSqrt            0      0.00%     70.89% # Class of committed instruction (Count)
system.cpu.commit.committedInstType_0::SimdAdd            0      0.00%     70.89% # Class of committed instruction (Count)
system.cpu.commit.committedInstType_0::SimdAddAcc            0      0.00%     70.89% # Class of committed instruction (Count)
system.cpu.commit.committedInstType_0::SimdAlu            0      0.00%     70.89% # Class of committed instruction (Count)
system.cpu.commit.committedInstType_0::SimdCmp            0      0.00%     70.89% # Class of committed instruction (Count)
system.cpu.commit.committedInstType_0::SimdCvt            0      0.00%     70.89% # Class of committed instruction (Count)
system.cpu.commit.committedInstType_0::SimdMisc            0      0.00%     70.89% # Class of committed instruction (Count)
system.cpu.commit.committedInstType_0::SimdMult            0      0.00%     70.89% # Class of committed instruction (Count)
system.cpu.commit.committedInstType_0::SimdMultAcc            0      0.00%     70.89% # Class of committed instruction (Count)
system.cpu.commit.committedInstType_0::SimdShift            0      0.00%     70.89% # Class of committed instruction (Count)
system.cpu.commit.committedInstType_0::SimdShiftAcc            0      0.00%     70.89% # Class of committed instruction (Count)
system.cpu.commit.committedInstType_0::SimdDiv            0      0.00%     70.89% # Class of committed instruction (Count)
system.cpu.commit.committedInstType_0::SimdSqrt            0      0.00%     70.89% # Class of committed instruction (Count)
system.cpu.commit.committedInstType_0::SimdFloatAdd            0      0.00%     70.89% # Class of committed instruction (Count)
system.cpu.commit.committedInstType_0::SimdFloatAlu            0      0.00%     70.89% # Class of committed instruction (Count)
system.cpu.commit.committedInstType_0::SimdFloatCmp            0      0.00%     70.89% # Class of committed instruction (Count)
system.cpu.commit.committedInstType_0::SimdFloatCvt            0      0.00%     70.89% # Class of committed instruction (Count)
system.cpu.commit.committedInstType_0::SimdFloatDiv            0      0.00%     70.89% # Class of committed instruction (Count)
system.cpu.commit.committedInstType_0::SimdFloatMisc            0      0.00%     70.89% # Class of committed instruction (Count)
system.cpu.commit.committedInstType_0::SimdFloatMult            0      0.00%     70.89% # Class of committed instruction (Count)
system.cpu.commit.committedInstType_0::SimdFloatMultAcc            0      0.00%     70.89% # Class of committed instruction (Count)
system.cpu.commit.committedInstType_0::SimdFloatSqrt            0      0.00%     70.89% # Class of committed instruction (Count)
system.cpu.commit.committedInstType_0::SimdReduceAdd            0      0.00%     70.89% # Class of committed instruction (Count)
system.cpu.commit.committedInstType_0::SimdReduceAlu            0      0.00%     70.89% # Class of committed instruction (Count)
system.cpu.commit.committedInstType_0::SimdReduceCmp            0      0.00%     70.89% # Class of committed instruction (Count)
system.cpu.commit.committedInstType_0::SimdFloatReduceAdd            0      0.00%     70.89% # Class of committed instruction (Count)
system.cpu.commit.committedInstType_0::SimdFloatReduceCmp            0      0.00%     70.89% # Class of committed instruction (Count)
system.cpu.commit.committedInstType_0::SimdAes            0      0.00%     70.89% # Class of committed instruction (Count)
system.cpu.commit.committedInstType_0::SimdAesMix            0      0.00%     70.89% # Class of committed instruction (Count)
system.cpu.commit.committedInstType_0::SimdSha1Hash            0      0.00%     70.89% # Class of committed instruction (Count)
system.cpu.commit.committedInstType_0::SimdSha1Hash2            0      0.00%     70.89% # Class of committed instruction (Count)
system.cpu.commit.committedInstType_0::SimdSha256Hash            0      0.00%     70.89% # Class of committed instruction (Count)
system.cpu.commit.committedInstType_0::SimdSha256Hash2            0      0.00%     70.89% # Class of committed instruction (Count)
system.cpu.commit.committedInstType_0::SimdShaSigma2            0      0.00%     70.89% # Class of committed instruction (Count)
system.cpu.commit.committedInstType_0::SimdShaSigma3            0      0.00%     70.89% # Class of committed instruction (Count)
system.cpu.commit.committedInstType_0::SimdPredAlu            0      0.00%     70.89% # Class of committed instruction (Count)
system.cpu.commit.committedInstType_0::MemRead      6795931     17.18%     88.07% # Class of committed instruction (Count)
system.cpu.commit.committedInstType_0::MemWrite      4059790     10.26%     98.33% # Class of committed instruction (Count)
system.cpu.commit.committedInstType_0::FloatMemRead       368645      0.93%     99.26% # Class of committed instruction (Count)
system.cpu.commit.committedInstType_0::FloatMemWrite       290831      0.74%    100.00% # Class of committed instruction (Count)
system.cpu.commit.committedInstType_0::IprAccess            0      0.00%    100.00% # Class of committed instruction (Count)
system.cpu.commit.committedInstType_0::InstPrefetch            0      0.00%    100.00% # Class of committed instruction (Count)
system.cpu.commit.committedInstType_0::total     39561863                       # Class of committed instruction (Count)
system.cpu.commit.commitEligibleSamples       2958060                       # number cycles where commit BW limit reached (Cycle)
system.cpu.dcache.demandHits::cpu.data        9475282                       # number of demand (read+write) hits (Count)
system.cpu.dcache.demandHits::total           9475282                       # number of demand (read+write) hits (Count)
system.cpu.dcache.overallHits::cpu.data       9475282                       # number of overall hits (Count)
system.cpu.dcache.overallHits::total          9475282                       # number of overall hits (Count)
system.cpu.dcache.demandMisses::cpu.data       895726                       # number of demand (read+write) misses (Count)
system.cpu.dcache.demandMisses::total          895726                       # number of demand (read+write) misses (Count)
system.cpu.dcache.overallMisses::cpu.data       895726                       # number of overall misses (Count)
system.cpu.dcache.overallMisses::total         895726                       # number of overall misses (Count)
system.cpu.dcache.demandMissLatency::cpu.data  38497082024                       # number of demand (read+write) miss ticks (Tick)
system.cpu.dcache.demandMissLatency::total  38497082024                       # number of demand (read+write) miss ticks (Tick)
system.cpu.dcache.overallMissLatency::cpu.data  38497082024                       # number of overall miss ticks (Tick)
system.cpu.dcache.overallMissLatency::total  38497082024                       # number of overall miss ticks (Tick)
system.cpu.dcache.demandAccesses::cpu.data     10371008                       # number of demand (read+write) accesses (Count)
system.cpu.dcache.demandAccesses::total      10371008                       # number of demand (read+write) accesses (Count)
system.cpu.dcache.overallAccesses::cpu.data     10371008                       # number of overall (read+write) accesses (Count)
system.cpu.dcache.overallAccesses::total     10371008                       # number of overall (read+write) accesses (Count)
system.cpu.dcache.demandMissRate::cpu.data     0.086368                       # miss rate for demand accesses (Ratio)
system.cpu.dcache.demandMissRate::total      0.086368                       # miss rate for demand accesses (Ratio)
system.cpu.dcache.overallMissRate::cpu.data     0.086368                       # miss rate for overall accesses (Ratio)
system.cpu.dcache.overallMissRate::total     0.086368                       # miss rate for overall accesses (Ratio)
system.cpu.dcache.demandAvgMissLatency::cpu.data 42978.636351                       # average overall miss latency ((Cycle/Count))
system.cpu.dcache.demandAvgMissLatency::total 42978.636351                       # average overall miss latency ((Cycle/Count))
system.cpu.dcache.overallAvgMissLatency::cpu.data 42978.636351                       # average overall miss latency ((Cycle/Count))
system.cpu.dcache.overallAvgMissLatency::total 42978.636351                       # average overall miss latency ((Cycle/Count))
system.cpu.dcache.blockedCycles::no_mshrs      1432553                       # number of cycles access was blocked (Cycle)
system.cpu.dcache.blockedCycles::no_targets       107681                       # number of cycles access was blocked (Cycle)
system.cpu.dcache.blockedCauses::no_mshrs        42974                       # number of times access was blocked (Count)
system.cpu.dcache.blockedCauses::no_targets         1266                       # number of times access was blocked (Count)
system.cpu.dcache.avgBlocked::no_mshrs      33.335342                       # average number of cycles each access was blocked ((Cycle/Count))
system.cpu.dcache.avgBlocked::no_targets    85.056082                       # average number of cycles each access was blocked ((Cycle/Count))
system.cpu.dcache.writebacks::writebacks        84002                       # number of writebacks (Count)
system.cpu.dcache.writebacks::total             84002                       # number of writebacks (Count)
system.cpu.dcache.demandMshrHits::cpu.data       653831                       # number of demand (read+write) MSHR hits (Count)
system.cpu.dcache.demandMshrHits::total        653831                       # number of demand (read+write) MSHR hits (Count)
system.cpu.dcache.overallMshrHits::cpu.data       653831                       # number of overall MSHR hits (Count)
system.cpu.dcache.overallMshrHits::total       653831                       # number of overall MSHR hits (Count)
system.cpu.dcache.demandMshrMisses::cpu.data       241895                       # number of demand (read+write) MSHR misses (Count)
system.cpu.dcache.demandMshrMisses::total       241895                       # number of demand (read+write) MSHR misses (Count)
system.cpu.dcache.overallMshrMisses::cpu.data       241895                       # number of overall MSHR misses (Count)
system.cpu.dcache.overallMshrMisses::total       241895                       # number of overall MSHR misses (Count)
system.cpu.dcache.demandMshrMissLatency::cpu.data  12733991333                       # number of demand (read+write) MSHR miss ticks (Tick)
system.cpu.dcache.demandMshrMissLatency::total  12733991333                       # number of demand (read+write) MSHR miss ticks (Tick)
system.cpu.dcache.overallMshrMissLatency::cpu.data  12733991333                       # number of overall MSHR miss ticks (Tick)
system.cpu.dcache.overallMshrMissLatency::total  12733991333                       # number of overall MSHR miss ticks (Tick)
system.cpu.dcache.demandMshrMissRate::cpu.data     0.023324                       # mshr miss ratio for demand accesses (Ratio)
system.cpu.dcache.demandMshrMissRate::total     0.023324                       # mshr miss ratio for demand accesses (Ratio)
system.cpu.dcache.overallMshrMissRate::cpu.data     0.023324                       # mshr miss ratio for overall accesses (Ratio)
system.cpu.dcache.overallMshrMissRate::total     0.023324                       # mshr miss ratio for overall accesses (Ratio)
system.cpu.dcache.demandAvgMshrMissLatency::cpu.data 52642.639711                       # average overall mshr miss latency ((Cycle/Count))
system.cpu.dcache.demandAvgMshrMissLatency::total 52642.639711                       # average overall mshr miss latency ((Cycle/Count))
system.cpu.dcache.overallAvgMshrMissLatency::cpu.data 52642.639711                       # average overall mshr miss latency ((Cycle/Count))
system.cpu.dcache.overallAvgMshrMissLatency::total 52642.639711                       # average overall mshr miss latency ((Cycle/Count))
system.cpu.dcache.replacements                 241835                       # number of replacements (Count)
system.cpu.dcache.LoadLockedReq.hits::cpu.data            8                       # number of LoadLockedReq hits (Count)
system.cpu.dcache.LoadLockedReq.hits::total            8                       # number of LoadLockedReq hits (Count)
system.cpu.dcache.LoadLockedReq.misses::cpu.data            5                       # number of LoadLockedReq misses (Count)
system.cpu.dcache.LoadLockedReq.misses::total            5                       # number of LoadLockedReq misses (Count)
system.cpu.dcache.LoadLockedReq.missLatency::cpu.data       300000                       # number of LoadLockedReq miss ticks (Tick)
system.cpu.dcache.LoadLockedReq.missLatency::total       300000                       # number of LoadLockedReq miss ticks (Tick)
system.cpu.dcache.LoadLockedReq.accesses::cpu.data           13                       # number of LoadLockedReq accesses(hits+misses) (Count)
system.cpu.dcache.LoadLockedReq.accesses::total           13                       # number of LoadLockedReq accesses(hits+misses) (Count)
system.cpu.dcache.LoadLockedReq.missRate::cpu.data     0.384615                       # miss rate for LoadLockedReq accesses (Ratio)
system.cpu.dcache.LoadLockedReq.missRate::total     0.384615                       # miss rate for LoadLockedReq accesses (Ratio)
system.cpu.dcache.LoadLockedReq.avgMissLatency::cpu.data        60000                       # average LoadLockedReq miss latency ((Tick/Count))
system.cpu.dcache.LoadLockedReq.avgMissLatency::total        60000                       # average LoadLockedReq miss latency ((Tick/Count))
system.cpu.dcache.LoadLockedReq.mshrHits::cpu.data            2                       # number of LoadLockedReq MSHR hits (Count)
system.cpu.dcache.LoadLockedReq.mshrHits::total            2                       # number of LoadLockedReq MSHR hits (Count)
system.cpu.dcache.LoadLockedReq.mshrMisses::cpu.data            3                       # number of LoadLockedReq MSHR misses (Count)
system.cpu.dcache.LoadLockedReq.mshrMisses::total            3                       # number of LoadLockedReq MSHR misses (Count)
system.cpu.dcache.LoadLockedReq.mshrMissLatency::cpu.data       190000                       # number of LoadLockedReq MSHR miss ticks (Tick)
system.cpu.dcache.LoadLockedReq.mshrMissLatency::total       190000                       # number of LoadLockedReq MSHR miss ticks (Tick)
system.cpu.dcache.LoadLockedReq.mshrMissRate::cpu.data     0.230769                       # mshr miss rate for LoadLockedReq accesses (Ratio)
system.cpu.dcache.LoadLockedReq.mshrMissRate::total     0.230769                       # mshr miss rate for LoadLockedReq accesses (Ratio)
system.cpu.dcache.LoadLockedReq.avgMshrMissLatency::cpu.data 63333.333333                       # average LoadLockedReq mshr miss latency ((Tick/Count))
system.cpu.dcache.LoadLockedReq.avgMshrMissLatency::total 63333.333333                       # average LoadLockedReq mshr miss latency ((Tick/Count))
system.cpu.dcache.ReadReq.hits::cpu.data      5378468                       # number of ReadReq hits (Count)
system.cpu.dcache.ReadReq.hits::total         5378468                       # number of ReadReq hits (Count)
system.cpu.dcache.ReadReq.misses::cpu.data       641928                       # number of ReadReq misses (Count)
system.cpu.dcache.ReadReq.misses::total        641928                       # number of ReadReq misses (Count)
system.cpu.dcache.ReadReq.missLatency::cpu.data  31528507000                       # number of ReadReq miss ticks (Tick)
system.cpu.dcache.ReadReq.missLatency::total  31528507000                       # number of ReadReq miss ticks (Tick)
system.cpu.dcache.ReadReq.accesses::cpu.data      6020396                       # number of ReadReq accesses(hits+misses) (Count)
system.cpu.dcache.ReadReq.accesses::total      6020396                       # number of ReadReq accesses(hits+misses) (Count)
system.cpu.dcache.ReadReq.missRate::cpu.data     0.106626                       # miss rate for ReadReq accesses (Ratio)
system.cpu.dcache.ReadReq.missRate::total     0.106626                       # miss rate for ReadReq accesses (Ratio)
system.cpu.dcache.ReadReq.avgMissLatency::cpu.data 49115.332249                       # average ReadReq miss latency ((Tick/Count))
system.cpu.dcache.ReadReq.avgMissLatency::total 49115.332249                       # average ReadReq miss latency ((Tick/Count))
system.cpu.dcache.ReadReq.mshrHits::cpu.data       450992                       # number of ReadReq MSHR hits (Count)
system.cpu.dcache.ReadReq.mshrHits::total       450992                       # number of ReadReq MSHR hits (Count)
system.cpu.dcache.ReadReq.mshrMisses::cpu.data       190936                       # number of ReadReq MSHR misses (Count)
system.cpu.dcache.ReadReq.mshrMisses::total       190936                       # number of ReadReq MSHR misses (Count)
system.cpu.dcache.ReadReq.mshrMissLatency::cpu.data  11390447500                       # number of ReadReq MSHR miss ticks (Tick)
system.cpu.dcache.ReadReq.mshrMissLatency::total  11390447500                       # number of ReadReq MSHR miss ticks (Tick)
system.cpu.dcache.ReadReq.mshrMissRate::cpu.data     0.031715                       # mshr miss rate for ReadReq accesses (Ratio)
system.cpu.dcache.ReadReq.mshrMissRate::total     0.031715                       # mshr miss rate for ReadReq accesses (Ratio)
system.cpu.dcache.ReadReq.avgMshrMissLatency::cpu.data 59655.840177                       # average ReadReq mshr miss latency ((Tick/Count))
system.cpu.dcache.ReadReq.avgMshrMissLatency::total 59655.840177                       # average ReadReq mshr miss latency ((Tick/Count))
system.cpu.dcache.StoreCondReq.hits::cpu.data            9                       # number of StoreCondReq hits (Count)
system.cpu.dcache.StoreCondReq.hits::total            9                       # number of StoreCondReq hits (Count)
system.cpu.dcache.StoreCondReq.accesses::cpu.data            9                       # number of StoreCondReq accesses(hits+misses) (Count)
system.cpu.dcache.StoreCondReq.accesses::total            9                       # number of StoreCondReq accesses(hits+misses) (Count)
system.cpu.dcache.SwapReq.hits::cpu.data           16                       # number of SwapReq hits (Count)
system.cpu.dcache.SwapReq.hits::total              16                       # number of SwapReq hits (Count)
system.cpu.dcache.SwapReq.misses::cpu.data            1                       # number of SwapReq misses (Count)
system.cpu.dcache.SwapReq.misses::total             1                       # number of SwapReq misses (Count)
system.cpu.dcache.SwapReq.missLatency::cpu.data        62000                       # number of SwapReq miss ticks (Tick)
system.cpu.dcache.SwapReq.missLatency::total        62000                       # number of SwapReq miss ticks (Tick)
system.cpu.dcache.SwapReq.accesses::cpu.data           17                       # number of SwapReq accesses(hits+misses) (Count)
system.cpu.dcache.SwapReq.accesses::total           17                       # number of SwapReq accesses(hits+misses) (Count)
system.cpu.dcache.SwapReq.missRate::cpu.data     0.058824                       # miss rate for SwapReq accesses (Ratio)
system.cpu.dcache.SwapReq.missRate::total     0.058824                       # miss rate for SwapReq accesses (Ratio)
system.cpu.dcache.SwapReq.avgMissLatency::cpu.data        62000                       # average SwapReq miss latency ((Tick/Count))
system.cpu.dcache.SwapReq.avgMissLatency::total        62000                       # average SwapReq miss latency ((Tick/Count))
system.cpu.dcache.SwapReq.mshrMisses::cpu.data            1                       # number of SwapReq MSHR misses (Count)
system.cpu.dcache.SwapReq.mshrMisses::total            1                       # number of SwapReq MSHR misses (Count)
system.cpu.dcache.SwapReq.mshrMissLatency::cpu.data        61000                       # number of SwapReq MSHR miss ticks (Tick)
system.cpu.dcache.SwapReq.mshrMissLatency::total        61000                       # number of SwapReq MSHR miss ticks (Tick)
system.cpu.dcache.SwapReq.mshrMissRate::cpu.data     0.058824                       # mshr miss rate for SwapReq accesses (Ratio)
system.cpu.dcache.SwapReq.mshrMissRate::total     0.058824                       # mshr miss rate for SwapReq accesses (Ratio)
system.cpu.dcache.SwapReq.avgMshrMissLatency::cpu.data        61000                       # average SwapReq mshr miss latency ((Tick/Count))
system.cpu.dcache.SwapReq.avgMshrMissLatency::total        61000                       # average SwapReq mshr miss latency ((Tick/Count))
system.cpu.dcache.WriteReq.hits::cpu.data      4096814                       # number of WriteReq hits (Count)
system.cpu.dcache.WriteReq.hits::total        4096814                       # number of WriteReq hits (Count)
system.cpu.dcache.WriteReq.misses::cpu.data       253798                       # number of WriteReq misses (Count)
system.cpu.dcache.WriteReq.misses::total       253798                       # number of WriteReq misses (Count)
system.cpu.dcache.WriteReq.missLatency::cpu.data   6968575024                       # number of WriteReq miss ticks (Tick)
system.cpu.dcache.WriteReq.missLatency::total   6968575024                       # number of WriteReq miss ticks (Tick)
system.cpu.dcache.WriteReq.accesses::cpu.data      4350612                       # number of WriteReq accesses(hits+misses) (Count)
system.cpu.dcache.WriteReq.accesses::total      4350612                       # number of WriteReq accesses(hits+misses) (Count)
system.cpu.dcache.WriteReq.missRate::cpu.data     0.058336                       # miss rate for WriteReq accesses (Ratio)
system.cpu.dcache.WriteReq.missRate::total     0.058336                       # miss rate for WriteReq accesses (Ratio)
system.cpu.dcache.WriteReq.avgMissLatency::cpu.data 27457.170758                       # average WriteReq miss latency ((Tick/Count))
system.cpu.dcache.WriteReq.avgMissLatency::total 27457.170758                       # average WriteReq miss latency ((Tick/Count))
system.cpu.dcache.WriteReq.mshrHits::cpu.data       202839                       # number of WriteReq MSHR hits (Count)
system.cpu.dcache.WriteReq.mshrHits::total       202839                       # number of WriteReq MSHR hits (Count)
system.cpu.dcache.WriteReq.mshrMisses::cpu.data        50959                       # number of WriteReq MSHR misses (Count)
system.cpu.dcache.WriteReq.mshrMisses::total        50959                       # number of WriteReq MSHR misses (Count)
system.cpu.dcache.WriteReq.mshrMissLatency::cpu.data   1343543833                       # number of WriteReq MSHR miss ticks (Tick)
system.cpu.dcache.WriteReq.mshrMissLatency::total   1343543833                       # number of WriteReq MSHR miss ticks (Tick)
system.cpu.dcache.WriteReq.mshrMissRate::cpu.data     0.011713                       # mshr miss rate for WriteReq accesses (Ratio)
system.cpu.dcache.WriteReq.mshrMissRate::total     0.011713                       # mshr miss rate for WriteReq accesses (Ratio)
system.cpu.dcache.WriteReq.avgMshrMissLatency::cpu.data 26365.192272                       # average WriteReq mshr miss latency ((Tick/Count))
system.cpu.dcache.WriteReq.avgMshrMissLatency::total 26365.192272                       # average WriteReq mshr miss latency ((Tick/Count))
system.cpu.dcache.power_state.pwrStateResidencyTicks::UNDEFINED  15088034500                       # Cumulative time (in ticks) in various power states (Tick)
system.cpu.dcache.tags.tagsInUse            63.991634                       # Average ticks per tags in use ((Tick/Count))
system.cpu.dcache.tags.totalRefs              9717214                       # Total number of references to valid blocks. (Count)
system.cpu.dcache.tags.sampledRefs             241899                       # Sample count of references to valid blocks. (Count)
system.cpu.dcache.tags.avgRefs              40.170542                       # Average number of references to valid blocks. ((Count/Count))
system.cpu.dcache.tags.warmupTick              152000                       # The tick when the warmup percentage was hit. (Tick)
system.cpu.dcache.tags.occupancies::cpu.data    63.991634                       # Average occupied blocks per tick, per requestor ((Count/Tick))
system.cpu.dcache.tags.avgOccs::cpu.data     0.999869                       # Average percentage of cache occupancy ((Ratio/Tick))
system.cpu.dcache.tags.avgOccs::total        0.999869                       # Average percentage of cache occupancy ((Ratio/Tick))
system.cpu.dcache.tags.occupanciesTaskId::1024           64                       # Occupied blocks per task id (Count)
system.cpu.dcache.tags.ageTaskId_1024::0           64                       # Occupied blocks per task id, per block age (Count)
system.cpu.dcache.tags.ratioOccsTaskId::1024            1                       # Ratio of occupied blocks and all blocks, per task id (Ratio)
system.cpu.dcache.tags.tagAccesses           20983993                       # Number of tag accesses (Count)
system.cpu.dcache.tags.dataAccesses          20983993                       # Number of data accesses (Count)
system.cpu.dcache.tags.power_state.pwrStateResidencyTicks::UNDEFINED  15088034500                       # Cumulative time (in ticks) in various power states (Tick)
system.cpu.decode.idleCycles                  5699261                       # Number of cycles decode is idle (Cycle)
system.cpu.decode.blockedCycles              14957294                       # Number of cycles decode is blocked (Cycle)
system.cpu.decode.runCycles                   7722822                       # Number of cycles decode is running (Cycle)
system.cpu.decode.unblockCycles                865152                       # Number of cycles decode is unblocking (Cycle)
system.cpu.decode.squashCycles                 187067                       # Number of cycles decode is squashing (Cycle)
system.cpu.decode.branchResolved              5326596                       # Number of times decode resolved a branch (Count)
system.cpu.decode.branchMispred                 12545                       # Number of times decode detected a branch misprediction (Count)
system.cpu.decode.decodedInsts               45332320                       # Number of instructions handled by decode (Count)
system.cpu.decode.squashedInsts                 47735                       # Number of squashed instructions handled by decode (Count)
system.cpu.dtb_walker_cache.blockedCycles::no_mshrs            0                       # number of cycles access was blocked (Cycle)
system.cpu.dtb_walker_cache.blockedCycles::no_targets            0                       # number of cycles access was blocked (Cycle)
system.cpu.dtb_walker_cache.blockedCauses::no_mshrs            0                       # number of times access was blocked (Count)
system.cpu.dtb_walker_cache.blockedCauses::no_targets            0                       # number of times access was blocked (Count)
system.cpu.dtb_walker_cache.avgBlocked::no_mshrs          nan                       # average number of cycles each access was blocked ((Cycle/Count))
system.cpu.dtb_walker_cache.avgBlocked::no_targets          nan                       # average number of cycles each access was blocked ((Cycle/Count))
system.cpu.dtb_walker_cache.replacements            0                       # number of replacements (Count)
system.cpu.dtb_walker_cache.power_state.pwrStateResidencyTicks::UNDEFINED  15088034500                       # Cumulative time (in ticks) in various power states (Tick)
system.cpu.dtb_walker_cache.tags.tagsInUse            0                       # Average ticks per tags in use ((Tick/Count))
system.cpu.dtb_walker_cache.tags.totalRefs            0                       # Total number of references to valid blocks. (Count)
system.cpu.dtb_walker_cache.tags.sampledRefs            0                       # Sample count of references to valid blocks. (Count)
system.cpu.dtb_walker_cache.tags.avgRefs          nan                       # Average number of references to valid blocks. ((Count/Count))
system.cpu.dtb_walker_cache.tags.warmupTick            0                       # The tick when the warmup percentage was hit. (Tick)
system.cpu.dtb_walker_cache.tags.tagAccesses            0                       # Number of tag accesses (Count)
system.cpu.dtb_walker_cache.tags.dataAccesses            0                       # Number of data accesses (Count)
system.cpu.dtb_walker_cache.tags.power_state.pwrStateResidencyTicks::UNDEFINED  15088034500                       # Cumulative time (in ticks) in various power states (Tick)
system.cpu.fetch.icacheStallCycles            7205373                       # Number of cycles fetch is stalled on an Icache miss (Cycle)
system.cpu.fetch.insts                       47070261                       # Number of instructions fetch has processed (Count)
system.cpu.fetch.branches                    10315469                       # Number of branches that fetch encountered (Count)
system.cpu.fetch.predictedBranches            6187766                       # Number of branches that fetch has predicted taken (Count)
system.cpu.fetch.cycles                      22026098                       # Number of cycles fetch has run and was not squashing or blocked (Cycle)
system.cpu.fetch.squashCycles                  399180                       # Number of cycles fetch has spent squashing (Cycle)
system.cpu.fetch.miscStallCycles                  252                       # Number of cycles fetch has spent waiting on interrupts, or bad addresses, or out of MSHRs (Cycle)
system.cpu.fetch.pendingTrapStallCycles           157                       # Number of stall cycles due to pending traps (Cycle)
system.cpu.fetch.icacheWaitRetryStallCycles          126                       # Number of stall cycles due to full MSHR (Cycle)
system.cpu.fetch.cacheLines                   5701820                       # Number of cache lines fetched (Count)
system.cpu.fetch.icacheSquashes                 72812                       # Number of outstanding Icache misses that were squashed (Count)
system.cpu.fetch.nisnDist::samples           29431596                       # Number of instructions fetched each cycle (Total) (Count)
system.cpu.fetch.nisnDist::mean              1.599313                       # Number of instructions fetched each cycle (Total) (Count)
system.cpu.fetch.nisnDist::stdev             2.648171                       # Number of instructions fetched each cycle (Total) (Count)
system.cpu.fetch.nisnDist::underflows               0      0.00%      0.00% # Number of instructions fetched each cycle (Total) (Count)
system.cpu.fetch.nisnDist::0                 19255417     65.42%     65.42% # Number of instructions fetched each cycle (Total) (Count)
system.cpu.fetch.nisnDist::1                  1437439      4.88%     70.31% # Number of instructions fetched each cycle (Total) (Count)
system.cpu.fetch.nisnDist::2                  1358928      4.62%     74.93% # Number of instructions fetched each cycle (Total) (Count)
system.cpu.fetch.nisnDist::3                  1101610      3.74%     78.67% # Number of instructions fetched each cycle (Total) (Count)
system.cpu.fetch.nisnDist::4                   982939      3.34%     82.01% # Number of instructions fetched each cycle (Total) (Count)
system.cpu.fetch.nisnDist::5                  1520594      5.17%     87.17% # Number of instructions fetched each cycle (Total) (Count)
system.cpu.fetch.nisnDist::6                   699048      2.38%     89.55% # Number of instructions fetched each cycle (Total) (Count)
system.cpu.fetch.nisnDist::7                   723775      2.46%     92.01% # Number of instructions fetched each cycle (Total) (Count)
system.cpu.fetch.nisnDist::8                  2351846      7.99%    100.00% # Number of instructions fetched each cycle (Total) (Count)
system.cpu.fetch.nisnDist::overflows                0      0.00%    100.00% # Number of instructions fetched each cycle (Total) (Count)
system.cpu.fetch.nisnDist::min_value                0                       # Number of instructions fetched each cycle (Total) (Count)
system.cpu.fetch.nisnDist::max_value                8                       # Number of instructions fetched each cycle (Total) (Count)
system.cpu.fetch.nisnDist::total             29431596                       # Number of instructions fetched each cycle (Total) (Count)
system.cpu.fetch.branchRate                  0.341843                       # Number of branch fetches per cycle (Ratio)
system.cpu.fetch.rate                        1.559854                       # Number of inst fetches per cycle ((Count/Cycle))
system.cpu.icache.demandHits::cpu.inst        5649756                       # number of demand (read+write) hits (Count)
system.cpu.icache.demandHits::total           5649756                       # number of demand (read+write) hits (Count)
system.cpu.icache.overallHits::cpu.inst       5649756                       # number of overall hits (Count)
system.cpu.icache.overallHits::total          5649756                       # number of overall hits (Count)
system.cpu.icache.demandMisses::cpu.inst        52061                       # number of demand (read+write) misses (Count)
system.cpu.icache.demandMisses::total           52061                       # number of demand (read+write) misses (Count)
system.cpu.icache.overallMisses::cpu.inst        52061                       # number of overall misses (Count)
system.cpu.icache.overallMisses::total          52061                       # number of overall misses (Count)
system.cpu.icache.demandMissLatency::cpu.inst   1240607998                       # number of demand (read+write) miss ticks (Tick)
system.cpu.icache.demandMissLatency::total   1240607998                       # number of demand (read+write) miss ticks (Tick)
system.cpu.icache.overallMissLatency::cpu.inst   1240607998                       # number of overall miss ticks (Tick)
system.cpu.icache.overallMissLatency::total   1240607998                       # number of overall miss ticks (Tick)
system.cpu.icache.demandAccesses::cpu.inst      5701817                       # number of demand (read+write) accesses (Count)
system.cpu.icache.demandAccesses::total       5701817                       # number of demand (read+write) accesses (Count)
system.cpu.icache.overallAccesses::cpu.inst      5701817                       # number of overall (read+write) accesses (Count)
system.cpu.icache.overallAccesses::total      5701817                       # number of overall (read+write) accesses (Count)
system.cpu.icache.demandMissRate::cpu.inst     0.009131                       # miss rate for demand accesses (Ratio)
system.cpu.icache.demandMissRate::total      0.009131                       # miss rate for demand accesses (Ratio)
system.cpu.icache.overallMissRate::cpu.inst     0.009131                       # miss rate for overall accesses (Ratio)
system.cpu.icache.overallMissRate::total     0.009131                       # miss rate for overall accesses (Ratio)
system.cpu.icache.demandAvgMissLatency::cpu.inst 23829.891819                       # average overall miss latency ((Cycle/Count))
system.cpu.icache.demandAvgMissLatency::total 23829.891819                       # average overall miss latency ((Cycle/Count))
system.cpu.icache.overallAvgMissLatency::cpu.inst 23829.891819                       # average overall miss latency ((Cycle/Count))
system.cpu.icache.overallAvgMissLatency::total 23829.891819                       # average overall miss latency ((Cycle/Count))
system.cpu.icache.blockedCycles::no_mshrs         1288                       # number of cycles access was blocked (Cycle)
system.cpu.icache.blockedCycles::no_targets            0                       # number of cycles access was blocked (Cycle)
system.cpu.icache.blockedCauses::no_mshrs           28                       # number of times access was blocked (Count)
system.cpu.icache.blockedCauses::no_targets            0                       # number of times access was blocked (Count)
system.cpu.icache.avgBlocked::no_mshrs             46                       # average number of cycles each access was blocked ((Cycle/Count))
system.cpu.icache.avgBlocked::no_targets          nan                       # average number of cycles each access was blocked ((Cycle/Count))
system.cpu.icache.writebacks::writebacks        49586                       # number of writebacks (Count)
system.cpu.icache.writebacks::total             49586                       # number of writebacks (Count)
system.cpu.icache.demandMshrHits::cpu.inst         2035                       # number of demand (read+write) MSHR hits (Count)
system.cpu.icache.demandMshrHits::total          2035                       # number of demand (read+write) MSHR hits (Count)
system.cpu.icache.overallMshrHits::cpu.inst         2035                       # number of overall MSHR hits (Count)
system.cpu.icache.overallMshrHits::total         2035                       # number of overall MSHR hits (Count)
system.cpu.icache.demandMshrMisses::cpu.inst        50026                       # number of demand (read+write) MSHR misses (Count)
system.cpu.icache.demandMshrMisses::total        50026                       # number of demand (read+write) MSHR misses (Count)
system.cpu.icache.overallMshrMisses::cpu.inst        50026                       # number of overall MSHR misses (Count)
system.cpu.icache.overallMshrMisses::total        50026                       # number of overall MSHR misses (Count)
system.cpu.icache.demandMshrMissLatency::cpu.inst   1158000000                       # number of demand (read+write) MSHR miss ticks (Tick)
system.cpu.icache.demandMshrMissLatency::total   1158000000                       # number of demand (read+write) MSHR miss ticks (Tick)
system.cpu.icache.overallMshrMissLatency::cpu.inst   1158000000                       # number of overall MSHR miss ticks (Tick)
system.cpu.icache.overallMshrMissLatency::total   1158000000                       # number of overall MSHR miss ticks (Tick)
system.cpu.icache.demandMshrMissRate::cpu.inst     0.008774                       # mshr miss ratio for demand accesses (Ratio)
system.cpu.icache.demandMshrMissRate::total     0.008774                       # mshr miss ratio for demand accesses (Ratio)
system.cpu.icache.overallMshrMissRate::cpu.inst     0.008774                       # mshr miss ratio for overall accesses (Ratio)
system.cpu.icache.overallMshrMissRate::total     0.008774                       # mshr miss ratio for overall accesses (Ratio)
system.cpu.icache.demandAvgMshrMissLatency::cpu.inst 23147.963059                       # average overall mshr miss latency ((Cycle/Count))
system.cpu.icache.demandAvgMshrMissLatency::total 23147.963059                       # average overall mshr miss latency ((Cycle/Count))
system.cpu.icache.overallAvgMshrMissLatency::cpu.inst 23147.963059                       # average overall mshr miss latency ((Cycle/Count))
system.cpu.icache.overallAvgMshrMissLatency::total 23147.963059                       # average overall mshr miss latency ((Cycle/Count))
system.cpu.icache.replacements                  49586                       # number of replacements (Count)
system.cpu.icache.ReadReq.hits::cpu.inst      5649756                       # number of ReadReq hits (Count)
system.cpu.icache.ReadReq.hits::total         5649756                       # number of ReadReq hits (Count)
system.cpu.icache.ReadReq.misses::cpu.inst        52061                       # number of ReadReq misses (Count)
system.cpu.icache.ReadReq.misses::total         52061                       # number of ReadReq misses (Count)
system.cpu.icache.ReadReq.missLatency::cpu.inst   1240607998                       # number of ReadReq miss ticks (Tick)
system.cpu.icache.ReadReq.missLatency::total   1240607998                       # number of ReadReq miss ticks (Tick)
system.cpu.icache.ReadReq.accesses::cpu.inst      5701817                       # number of ReadReq accesses(hits+misses) (Count)
system.cpu.icache.ReadReq.accesses::total      5701817                       # number of ReadReq accesses(hits+misses) (Count)
system.cpu.icache.ReadReq.missRate::cpu.inst     0.009131                       # miss rate for ReadReq accesses (Ratio)
system.cpu.icache.ReadReq.missRate::total     0.009131                       # miss rate for ReadReq accesses (Ratio)
system.cpu.icache.ReadReq.avgMissLatency::cpu.inst 23829.891819                       # average ReadReq miss latency ((Tick/Count))
system.cpu.icache.ReadReq.avgMissLatency::total 23829.891819                       # average ReadReq miss latency ((Tick/Count))
system.cpu.icache.ReadReq.mshrHits::cpu.inst         2035                       # number of ReadReq MSHR hits (Count)
system.cpu.icache.ReadReq.mshrHits::total         2035                       # number of ReadReq MSHR hits (Count)
system.cpu.icache.ReadReq.mshrMisses::cpu.inst        50026                       # number of ReadReq MSHR misses (Count)
system.cpu.icache.ReadReq.mshrMisses::total        50026                       # number of ReadReq MSHR misses (Count)
system.cpu.icache.ReadReq.mshrMissLatency::cpu.inst   1158000000                       # number of ReadReq MSHR miss ticks (Tick)
system.cpu.icache.ReadReq.mshrMissLatency::total   1158000000                       # number of ReadReq MSHR miss ticks (Tick)
system.cpu.icache.ReadReq.mshrMissRate::cpu.inst     0.008774                       # mshr miss rate for ReadReq accesses (Ratio)
system.cpu.icache.ReadReq.mshrMissRate::total     0.008774                       # mshr miss rate for ReadReq accesses (Ratio)
system.cpu.icache.ReadReq.avgMshrMissLatency::cpu.inst 23147.963059                       # average ReadReq mshr miss latency ((Tick/Count))
system.cpu.icache.ReadReq.avgMshrMissLatency::total 23147.963059                       # average ReadReq mshr miss latency ((Tick/Count))
system.cpu.icache.power_state.pwrStateResidencyTicks::UNDEFINED  15088034500                       # Cumulative time (in ticks) in various power states (Tick)
system.cpu.icache.tags.tagsInUse           370.504136                       # Average ticks per tags in use ((Tick/Count))
system.cpu.icache.tags.totalRefs              5699780                       # Total number of references to valid blocks. (Count)
system.cpu.icache.tags.sampledRefs              50024                       # Sample count of references to valid blocks. (Count)
system.cpu.icache.tags.avgRefs             113.940908                       # Average number of references to valid blocks. ((Count/Count))
system.cpu.icache.tags.warmupTick               77000                       # The tick when the warmup percentage was hit. (Tick)
system.cpu.icache.tags.occupancies::cpu.inst   370.504136                       # Average occupied blocks per tick, per requestor ((Count/Tick))
system.cpu.icache.tags.avgOccs::cpu.inst     0.723641                       # Average percentage of cache occupancy ((Ratio/Tick))
system.cpu.icache.tags.avgOccs::total        0.723641                       # Average percentage of cache occupancy ((Ratio/Tick))
system.cpu.icache.tags.occupanciesTaskId::1024          438                       # Occupied blocks per task id (Count)
system.cpu.icache.tags.ageTaskId_1024::0           97                       # Occupied blocks per task id, per block age (Count)
system.cpu.icache.tags.ageTaskId_1024::1           26                       # Occupied blocks per task id, per block age (Count)
system.cpu.icache.tags.ageTaskId_1024::3          156                       # Occupied blocks per task id, per block age (Count)
system.cpu.icache.tags.ageTaskId_1024::4          159                       # Occupied blocks per task id, per block age (Count)
system.cpu.icache.tags.ratioOccsTaskId::1024     0.855469                       # Ratio of occupied blocks and all blocks, per task id (Ratio)
system.cpu.icache.tags.tagAccesses           11453658                       # Number of tag accesses (Count)
system.cpu.icache.tags.dataAccesses          11453658                       # Number of data accesses (Count)
system.cpu.icache.tags.power_state.pwrStateResidencyTicks::UNDEFINED  15088034500                       # Cumulative time (in ticks) in various power states (Tick)
system.cpu.iew.idleCycles                           0                       # Number of cycles IEW is idle (Cycle)
system.cpu.iew.squashCycles                    187067                       # Number of cycles IEW is squashing (Cycle)
system.cpu.iew.blockCycles                    2496201                       # Number of cycles IEW is blocking (Cycle)
system.cpu.iew.unblockCycles                  1900095                       # Number of cycles IEW is unblocking (Cycle)
system.cpu.iew.dispatchedInsts               43407288                       # Number of instructions dispatched to IQ (Count)
system.cpu.iew.dispSquashedInsts               116424                       # Number of squashed instructions skipped by dispatch (Count)
system.cpu.iew.dispLoadInsts                  7855014                       # Number of dispatched load instructions (Count)
system.cpu.iew.dispStoreInsts                 4751717                       # Number of dispatched store instructions (Count)
system.cpu.iew.dispNonSpecInsts                 33329                       # Number of dispatched non-speculative instructions (Count)
system.cpu.iew.iqFullEvents                     95169                       # Number of times the IQ has become full, causing a stall (Count)
system.cpu.iew.lsqFullEvents                  1767680                       # Number of times the LSQ has become full, causing a stall (Count)
system.cpu.iew.memOrderViolationEvents            712                       # Number of memory order violations (Count)
system.cpu.iew.predictedTakenIncorrect          81114                       # Number of branches that were predicted taken incorrectly (Count)
system.cpu.iew.predictedNotTakenIncorrect       117773                       # Number of branches that were predicted not taken incorrectly (Count)
system.cpu.iew.branchMispredicts               198887                       # Number of branch mispredicts detected at execute (Count)
system.cpu.iew.instsToCommit                 41924912                       # Cumulative count of insts sent to commit (Count)
system.cpu.iew.writebackCount                41850607                       # Cumulative count of insts written-back (Count)
system.cpu.iew.producerInst                  20220521                       # Number of instructions producing a value (Count)
[...]
system.mem_ctrls.dram.bwRead::total        1237418167                       # Total read bandwidth from this memory ((Byte/Second))
system.mem_ctrls.dram.bwInstRead::cpu.inst    212190395                       # Instruction read bandwidth from this memory ((Byte/Second))
system.mem_ctrls.dram.bwInstRead::total     212190395                       # Instruction read bandwidth from this memory ((Byte/Second))
system.mem_ctrls.dram.bwWrite::writebacks    356317319                       # Write bandwidth from this memory ((Byte/Second))
system.mem_ctrls.dram.bwWrite::total        356317319                       # Write bandwidth from this memory ((Byte/Second))
system.mem_ctrls.dram.bwTotal::writebacks    356317319                       # Total bandwidth to/from this memory ((Byte/Second))
system.mem_ctrls.dram.bwTotal::cpu.inst     212190395                       # Total bandwidth to/from this memory ((Byte/Second))
system.mem_ctrls.dram.bwTotal::cpu.data    1025227772                       # Total bandwidth to/from this memory ((Byte/Second))
system.mem_ctrls.dram.bwTotal::total       1593735486                       # Total bandwidth to/from this memory ((Byte/Second))
system.mem_ctrls.dram.readBursts               169888                       # Number of DRAM read bursts (Count)
system.mem_ctrls.dram.writeBursts               17036                       # Number of DRAM write bursts (Count)
system.mem_ctrls.dram.perBankRdBursts::0         8315                       # Per bank write bursts (Count)
system.mem_ctrls.dram.perBankRdBursts::1         3367                       # Per bank write bursts (Count)
system.mem_ctrls.dram.perBankRdBursts::2        29250                       # Per bank write bursts (Count)
system.mem_ctrls.dram.perBankRdBursts::3        44939                       # Per bank write bursts (Count)
system.mem_ctrls.dram.perBankRdBursts::4         4842                       # Per bank write bursts (Count)
system.mem_ctrls.dram.perBankRdBursts::5        22153                       # Per bank write bursts (Count)
system.mem_ctrls.dram.perBankRdBursts::6         4113                       # Per bank write bursts (Count)
system.mem_ctrls.dram.perBankRdBursts::7         2756                       # Per bank write bursts (Count)
system.mem_ctrls.dram.perBankRdBursts::8         2730                       # Per bank write bursts (Count)
system.mem_ctrls.dram.perBankRdBursts::9         2752                       # Per bank write bursts (Count)
system.mem_ctrls.dram.perBankRdBursts::10         5689                       # Per bank write bursts (Count)
system.mem_ctrls.dram.perBankRdBursts::11         8347                       # Per bank write bursts (Count)
system.mem_ctrls.dram.perBankRdBursts::12         8321                       # Per bank write bursts (Count)
system.mem_ctrls.dram.perBankRdBursts::13         8261                       # Per bank write bursts (Count)
system.mem_ctrls.dram.perBankRdBursts::14         5708                       # Per bank write bursts (Count)
system.mem_ctrls.dram.perBankRdBursts::15         8345                       # Per bank write bursts (Count)
system.mem_ctrls.dram.perBankWrBursts::0         2433                       # Per bank write bursts (Count)
system.mem_ctrls.dram.perBankWrBursts::1         2453                       # Per bank write bursts (Count)
system.mem_ctrls.dram.perBankWrBursts::2          449                       # Per bank write bursts (Count)
system.mem_ctrls.dram.perBankWrBursts::3          432                       # Per bank write bursts (Count)
system.mem_ctrls.dram.perBankWrBursts::4         1433                       # Per bank write bursts (Count)
system.mem_ctrls.dram.perBankWrBursts::5          294                       # Per bank write bursts (Count)
system.mem_ctrls.dram.perBankWrBursts::6         1446                       # Per bank write bursts (Count)
system.mem_ctrls.dram.perBankWrBursts::7          585                       # Per bank write bursts (Count)
system.mem_ctrls.dram.perBankWrBursts::8          532                       # Per bank write bursts (Count)
system.mem_ctrls.dram.perBankWrBursts::9          535                       # Per bank write bursts (Count)
system.mem_ctrls.dram.perBankWrBursts::10          626                       # Per bank write bursts (Count)
system.mem_ctrls.dram.perBankWrBursts::11          536                       # Per bank write bursts (Count)
system.mem_ctrls.dram.perBankWrBursts::12          661                       # Per bank write bursts (Count)
system.mem_ctrls.dram.perBankWrBursts::13          579                       # Per bank write bursts (Count)
system.mem_ctrls.dram.perBankWrBursts::14         1579                       # Per bank write bursts (Count)
system.mem_ctrls.dram.perBankWrBursts::15         2463                       # Per bank write bursts (Count)
system.mem_ctrls.dram.totQLat              2537799750                       # Total ticks spent queuing (Tick)
system.mem_ctrls.dram.totBusLat             849440000                       # Total ticks spent in databus transfers (Tick)
system.mem_ctrls.dram.totMemAccLat         5723199750                       # Total ticks spent from burst creation until serviced by the DRAM (Tick)
system.mem_ctrls.dram.avgQLat                14938.08                       # Average queueing delay per DRAM burst ((Tick/Count))
system.mem_ctrls.dram.avgBusLat               5000.00                       # Average bus latency per DRAM burst ((Tick/Count))
system.mem_ctrls.dram.avgMemAccLat           33688.08                       # Average memory access latency per DRAM burst ((Tick/Count))
system.mem_ctrls.dram.readRowHits              108650                       # Number of row buffer hits during reads (Count)
system.mem_ctrls.dram.writeRowHits              15551                       # Number of row buffer hits during writes (Count)
system.mem_ctrls.dram.readRowHitRate            63.95                       # Row buffer hit rate for reads (Ratio)
system.mem_ctrls.dram.writeRowHitRate           91.28                       # Row buffer hit rate for writes (Ratio)
system.mem_ctrls.dram.bytesPerActivate::samples        62709                       # Bytes accessed per row activation (Byte)
system.mem_ctrls.dram.bytesPerActivate::mean   190.716101                       # Bytes accessed per row activation (Byte)
system.mem_ctrls.dram.bytesPerActivate::gmean   111.328565                       # Bytes accessed per row activation (Byte)
system.mem_ctrls.dram.bytesPerActivate::stdev   273.806773                       # Bytes accessed per row activation (Byte)
system.mem_ctrls.dram.bytesPerActivate::0-127        38691     61.70%     61.70% # Bytes accessed per row activation (Byte)
system.mem_ctrls.dram.bytesPerActivate::128-255        11810     18.83%     80.53% # Bytes accessed per row activation (Byte)
system.mem_ctrls.dram.bytesPerActivate::256-383         4914      7.84%     88.37% # Bytes accessed per row activation (Byte)
system.mem_ctrls.dram.bytesPerActivate::384-511          604      0.96%     89.33% # Bytes accessed per row activation (Byte)
system.mem_ctrls.dram.bytesPerActivate::512-639          637      1.02%     90.35% # Bytes accessed per row activation (Byte)
system.mem_ctrls.dram.bytesPerActivate::640-767          306      0.49%     90.84% # Bytes accessed per row activation (Byte)
system.mem_ctrls.dram.bytesPerActivate::768-895          276      0.44%     91.28% # Bytes accessed per row activation (Byte)
system.mem_ctrls.dram.bytesPerActivate::896-1023          553      0.88%     92.16% # Bytes accessed per row activation (Byte)
system.mem_ctrls.dram.bytesPerActivate::1024-1151         4918      7.84%    100.00% # Bytes accessed per row activation (Byte)
system.mem_ctrls.dram.bytesPerActivate::total        62709                       # Bytes accessed per row activation (Byte)
system.mem_ctrls.dram.bytesRead              10872832                       # Total bytes read (Byte)
system.mem_ctrls.dram.bytesWritten            1090304                       # Total bytes written (Byte)
system.mem_ctrls.dram.avgRdBW              720.626136                       # Average DRAM read bandwidth in MiBytes/s ((Byte/Second))
system.mem_ctrls.dram.avgWrBW               72.262825                       # Average DRAM write bandwidth in MiBytes/s ((Byte/Second))
system.mem_ctrls.dram.peakBW                 12800.00                       # Theoretical peak bandwidth in MiByte/s ((Byte/Second))
system.mem_ctrls.dram.busUtil                    6.19                       # Data bus utilization in percentage (Ratio)
system.mem_ctrls.dram.busUtilRead                5.63                       # Data bus utilization in percentage for reads (Ratio)
system.mem_ctrls.dram.busUtilWrite               0.56                       # Data bus utilization in percentage for writes (Ratio)
system.mem_ctrls.dram.pageHitRate               66.44                       # Row buffer hit rate, read and write combined (Ratio)
system.mem_ctrls.dram.power_state.pwrStateResidencyTicks::UNDEFINED  15088034500                       # Cumulative time (in ticks) in various power states (Tick)
system.mem_ctrls.dram.rank0.actEnergy       398076420                       # Energy for activate commands per rank (pJ) (Joule)
system.mem_ctrls.dram.rank0.preEnergy       211559865                       # Energy for precharge commands per rank (pJ) (Joule)
system.mem_ctrls.dram.rank0.readEnergy      854907900                       # Energy for read commands per rank (pJ) (Joule)
system.mem_ctrls.dram.rank0.writeEnergy      49720500                       # Energy for write commands per rank (pJ) (Joule)
system.mem_ctrls.dram.rank0.refreshEnergy 1190557680.000000                       # Energy for refresh commands per rank (pJ) (Joule)
system.mem_ctrls.dram.rank0.actBackEnergy   6786436530                       # Energy for active background per rank (pJ) (Joule)
system.mem_ctrls.dram.rank0.preBackEnergy     78911520                       # Energy for precharge background per rank (pJ) (Joule)
system.mem_ctrls.dram.rank0.actPowerDownEnergy            0                       # Energy for active power-down per rank (pJ) (Joule)
system.mem_ctrls.dram.rank0.prePowerDownEnergy            0                       # Energy for precharge power-down per rank (pJ) (Joule)
system.mem_ctrls.dram.rank0.selfRefreshEnergy            0                       # Energy for self refresh per rank (pJ) (Joule)
system.mem_ctrls.dram.rank0.totalEnergy    9570170415                       # Total energy per rank (pJ) (Joule)
system.mem_ctrls.dram.rank0.averagePower   634.288742                       # Core power per rank (mW) (Watt)
system.mem_ctrls.dram.rank0.totalIdleTime            0                       # Total Idle time Per DRAM Rank (Tick)
system.mem_ctrls.dram.rank0.pwrStateTime::IDLE    144200500                       # Time in different power states (Tick)
system.mem_ctrls.dram.rank0.pwrStateTime::REF    503620000                       # Time in different power states (Tick)
system.mem_ctrls.dram.rank0.pwrStateTime::SREF            0                       # Time in different power states (Tick)
system.mem_ctrls.dram.rank0.pwrStateTime::PRE_PDN            0                       # Time in different power states (Tick)
system.mem_ctrls.dram.rank0.pwrStateTime::ACT  14440214000                       # Time in different power states (Tick)
system.mem_ctrls.dram.rank0.pwrStateTime::ACT_PDN            0                       # Time in different power states (Tick)
system.mem_ctrls.dram.rank1.actEnergy        49765800                       # Energy for activate commands per rank (pJ) (Joule)
system.mem_ctrls.dram.rank1.preEnergy        26420790                       # Energy for precharge commands per rank (pJ) (Joule)
system.mem_ctrls.dram.rank1.readEnergy      358085280                       # Energy for read commands per rank (pJ) (Joule)
system.mem_ctrls.dram.rank1.writeEnergy      39207420                       # Energy for write commands per rank (pJ) (Joule)
system.mem_ctrls.dram.rank1.refreshEnergy 1190557680.000000                       # Energy for refresh commands per rank (pJ) (Joule)
system.mem_ctrls.dram.rank1.actBackEnergy   5781675300                       # Energy for active background per rank (pJ) (Joule)
system.mem_ctrls.dram.rank1.preBackEnergy    925026240                       # Energy for precharge background per rank (pJ) (Joule)
system.mem_ctrls.dram.rank1.actPowerDownEnergy            0                       # Energy for active power-down per rank (pJ) (Joule)
system.mem_ctrls.dram.rank1.prePowerDownEnergy            0                       # Energy for precharge power-down per rank (pJ) (Joule)
system.mem_ctrls.dram.rank1.selfRefreshEnergy            0                       # Energy for self refresh per rank (pJ) (Joule)
system.mem_ctrls.dram.rank1.totalEnergy    8370738510                       # Total energy per rank (pJ) (Joule)
system.mem_ctrls.dram.rank1.averagePower   554.793171                       # Core power per rank (mW) (Watt)
system.mem_ctrls.dram.rank1.totalIdleTime            0                       # Total Idle time Per DRAM Rank (Tick)
system.mem_ctrls.dram.rank1.pwrStateTime::IDLE   2337784000                       # Time in different power states (Tick)
system.mem_ctrls.dram.rank1.pwrStateTime::REF    503620000                       # Time in different power states (Tick)
system.mem_ctrls.dram.rank1.pwrStateTime::SREF            0                       # Time in different power states (Tick)
system.mem_ctrls.dram.rank1.pwrStateTime::PRE_PDN            0                       # Time in different power states (Tick)
system.mem_ctrls.dram.rank1.pwrStateTime::ACT  12246630500                       # Time in different power states (Tick)
system.mem_ctrls.dram.rank1.pwrStateTime::ACT_PDN            0                       # Time in different power states (Tick)
system.mem_ctrls.power_state.pwrStateResidencyTicks::UNDEFINED  15088034500                       # Cumulative time (in ticks) in various power states (Tick)
system.membus.transDist::ReadResp              240963                       # Transaction distribution (Count)
system.membus.transDist::WritebackDirty         84002                       # Transaction distribution (Count)
system.membus.transDist::WritebackClean         49586                       # Transaction distribution (Count)
system.membus.transDist::CleanEvict            157833                       # Transaction distribution (Count)
system.membus.transDist::ReadExReq              50759                       # Transaction distribution (Count)
system.membus.transDist::ReadExResp             50759                       # Transaction distribution (Count)
system.membus.transDist::ReadCleanReq           50026                       # Transaction distribution (Count)
system.membus.transDist::ReadSharedReq         190939                       # Transaction distribution (Count)
system.membus.transDist::InvalidateReq            201                       # Transaction distribution (Count)
system.membus.pktCount_system.cpu.icache.mem_side_port::system.mem_ctrls.port       149636                       # Packet count per connected requestor and responder (Count)
system.membus.pktCount_system.cpu.dcache.mem_side_port::system.mem_ctrls.port       725432                       # Packet count per connected requestor and responder (Count)
system.membus.pktCount::total                  875068                       # Packet count per connected requestor and responder (Count)
system.membus.pktSize_system.cpu.icache.mem_side_port::system.mem_ctrls.port      6375040                       # Cumulative packet size per connected requestor and responder (Byte)
system.membus.pktSize_system.cpu.dcache.mem_side_port::system.mem_ctrls.port     20844800                       # Cumulative packet size per connected requestor and responder (Byte)
system.membus.pktSize::total                 27219840                       # Cumulative packet size per connected requestor and responder (Byte)
system.membus.snoops                                0                       # Total snoops (Count)
system.membus.snoopTraffic                          0                       # Total snoop traffic (Byte)
system.membus.snoopFanout::samples             291925                       # Request fanout histogram (Count)
system.membus.snoopFanout::mean                     0                       # Request fanout histogram (Count)
system.membus.snoopFanout::stdev                    0                       # Request fanout histogram (Count)
system.membus.snoopFanout::underflows               0      0.00%      0.00% # Request fanout histogram (Count)
system.membus.snoopFanout::0                   291925    100.00%    100.00% # Request fanout histogram (Count)
system.membus.snoopFanout::1                        0      0.00%    100.00% # Request fanout histogram (Count)
system.membus.snoopFanout::2                        0      0.00%    100.00% # Request fanout histogram (Count)
system.membus.snoopFanout::3                        0      0.00%    100.00% # Request fanout histogram (Count)
system.membus.snoopFanout::4                        0      0.00%    100.00% # Request fanout histogram (Count)
system.membus.snoopFanout::overflows                0      0.00%    100.00% # Request fanout histogram (Count)
system.membus.snoopFanout::min_value                0                       # Request fanout histogram (Count)
system.membus.snoopFanout::max_value                0                       # Request fanout histogram (Count)
system.membus.snoopFanout::total               291925                       # Request fanout histogram (Count)
system.membus.power_state.pwrStateResidencyTicks::UNDEFINED  15088034500                       # Cumulative time (in ticks) in various power states (Tick)
system.membus.reqLayer0.occupancy          1186323000                       # Layer occupancy (ticks) (Tick)
system.membus.reqLayer0.utilization               0.1                       # Layer utilization (Ratio)
system.membus.respLayer1.occupancy          250445249                       # Layer occupancy (ticks) (Tick)
system.membus.respLayer1.utilization              0.0                       # Layer utilization (Ratio)
system.membus.respLayer2.occupancy         1272318999                       # Layer occupancy (ticks) (Tick)
system.membus.respLayer2.utilization              0.1                       # Layer utilization (Ratio)
system.membus.snoop_filter.totRequests         583346                       # Total number of requests made to the snoop filter. (Count)
system.membus.snoop_filter.hitSingleRequests       291421                       # Number of requests hitting in the snoop filter with a single holder of the requested data. (Count)
system.membus.snoop_filter.hitMultiRequests            0                       # Number of requests hitting in the snoop filter with multiple (>1) holders of the requested data. (Count)
system.membus.snoop_filter.totSnoops                0                       # Total number of snoops made to the snoop filter. (Count)
system.membus.snoop_filter.hitSingleSnoops            0                       # Number of snoops hitting in the snoop filter with a single holder of the requested data. (Count)
system.membus.snoop_filter.hitMultiSnoops            0                       # Number of snoops hitting in the snoop filter with multiple (>1) holders of the requested data. (Count)
system.voltage_domain.voltage                       1                       # Voltage in Volts (Volt)
system.workload.inst.arm                            0                       # number of arm instructions executed (Count)
system.workload.inst.quiesce                        0                       # number of quiesce instructions executed (Count)

---------- End Simulation Statistics   ----------
