
---------- Begin Simulation Statistics ----------
simSeconds                                   0.018099                       # Number of seconds simulated (Second)
simTicks                                  18098871500                       # Number of ticks simulated (Tick)
finalTick                                 18098871500                       # Number of ticks from beginning of simulation (restored from checkpoints and never reset) (Tick)
simFreq                                  1000000000000                       # The number of ticks per simulated second ((Tick/Second))
hostSeconds                                     61.07                       # Real time elapsed on the host (Second)
hostTickRate                                296341786                       # The number of ticks simulated per host second (ticks/s) ((Tick/Second))
hostMemory                                     640012                       # Number of bytes of host memory used (Byte)
simInsts                                     39561848                       # Number of instructions simulated (Count)
simOps                                       39561863                       # Number of ops (including micro ops) simulated (Count)
hostInstRate                                   647765                       # Simulator instruction rate (inst/s) ((Count/Second))
hostOpRate                                     647766                       # Simulator op (including micro ops) rate (op/s) ((Count/Second))
system.clk_domain.clock                          1000                       # Clock period in ticks (Tick)
system.cpu.numCycles                         36197744                       # Number of cpu cycles simulated (Cycle)
system.cpu.numWorkItemsStarted                      0                       # Number of work items this cpu started (Count)
system.cpu.numWorkItemsCompleted                    0                       # Number of work items this cpu completed (Count)
system.cpu.instsAdded                        43791245                       # Number of instructions added to the IQ (excludes non-spec) (Count)
system.cpu.nonSpecInstsAdded                    33418                       # Number of non-speculative instructions added to the IQ (Count)
system.cpu.instsIssued                       43629376                       # Number of instructions issued (Count)
system.cpu.squashedInstsIssued                  83327                       # Number of squashed instructions issued (Count)
system.cpu.squashedInstsExamined              4262799                       # Number of squashed instructions iterated over during squash; mainly for profiling (Count)
system.cpu.squashedOperandsExamined           2360415                       # Number of squashed operands that are examined and possibly removed from graph (Count)
system.cpu.squashedNonSpecRemoved                4670                       # Number of squashed non-spec instructions that were removed (Count)
system.cpu.numIssuedDist::samples            35278314                       # Number of insts issued each cycle (Count)
system.cpu.numIssuedDist::mean               1.236719                       # Number of insts issued each cycle (Count)
system.cpu.numIssuedDist::stdev              1.927381                       # Number of insts issued each cycle (Count)
system.cpu.numIssuedDist::underflows                0      0.00%      0.00% # Number of insts issued each cycle (Count)
system.cpu.numIssuedDist::0                  20912335     59.28%     59.28% # Number of insts issued each cycle (Count)
system.cpu.numIssuedDist::1                   3942711     11.18%     70.45% # Number of insts issued each cycle (Count)
system.cpu.numIssuedDist::2                   2940996      8.34%     78.79% # Number of insts issued each cycle (Count)
system.cpu.numIssuedDist::3                   2425726      6.88%     85.67% # Number of insts issued each cycle (Count)
system.cpu.numIssuedDist::4                   1917881      5.44%     91.10% # Number of insts issued each cycle (Count)
system.cpu.numIssuedDist::5                   1303480      3.69%     94.80% # Number of insts issued each cycle (Count)
system.cpu.numIssuedDist::6                    944745      2.68%     97.48% # Number of insts issued each cycle (Count)
system.cpu.numIssuedDist::7                    453419      1.29%     98.76% # Number of insts issued each cycle (Count)
system.cpu.numIssuedDist::8                    437021      1.24%    100.00% # Number of insts issued each cycle (Count)
system.cpu.numIssuedDist::overflows                 0      0.00%    100.00% # Number of insts issued each cycle (Count)
system.cpu.numIssuedDist::min_value                 0                       # Number of insts issued each cycle (Count)
system.cpu.numIssuedDist::max_value                 8                       # Number of insts issued each cycle (Count)
system.cpu.numIssuedDist::total              35278314                       # Number of insts issued each cycle (Count)
system.cpu.statFuBusy::No_OpClass                   0      0.00%      0.00% # attempts to use FU when none available (Count)
system.cpu.statFuBusy::IntAlu                  325581     21.78%     21.78% # attempts to use FU when none available (Count)
system.cpu.statFuBusy::IntMult                  81480      5.45%     27.24% # attempts to use FU when none available (Count)
system.cpu.statFuBusy::IntDiv                    1459      0.10%     27.33% # attempts to use FU when none available (Count)
system.cpu.statFuBusy::FloatAdd                    10      0.00%     27.33% # attempts to use FU when none available (Count)
system.cpu.statFuBusy::FloatCmp                   523      0.03%     27.37% # attempts to use FU when none available (Count)
system.cpu.statFuBusy::FloatCvt                     0      0.00%     27.37% # attempts to use FU when none available (Count)
system.cpu.statFuBusy::FloatMult                    0      0.00%     27.37% # attempts to use FU when none available (Count)
system.cpu.statFuBusy::FloatMultAcc              2327      0.16%     27.52% # attempts to use FU when none available (Count)
system.cpu.statFuBusy::FloatDiv                     0      0.00%     27.52% # attempts to use FU when none available (Count)
system.cpu.statFuBusy::FloatMisc                    0      0.00%     27.52% # attempts to use FU when none available (Count)
system.cpu.statFuBusy::FloatSqrt                    0      0.00%     27.52% # attempts to use FU when none available (Count)
system.cpu.statFuBusy::SimdAdd                      0      0.00%     27.52% # attempts to use FU when none available (Count)
system.cpu.statFuBusy::SimdAddAcc                   0      0.00%     27.52% # attempts to use FU when none available (Count)
system.cpu.statFuBusy::SimdAlu                      0      0.00%     27.52% # attempts to use FU when none available (Count)
system.cpu.statFuBusy::SimdCmp                      0      0.00%     27.52% # attempts to use FU when none available (Count)
system.cpu.statFuBusy::SimdCvt                      0      0.00%     27.52% # attempts to use FU when none available (Count)
system.cpu.statFuBusy::SimdMisc                     0      0.00%     27.52% # attempts to use FU when none available (Count)
system.cpu.statFuBusy::SimdMult                     0      0.00%     27.52% # attempts to use FU when none available (Count)
system.cpu.statFuBusy::SimdMultAcc                  0      0.00%     27.52% # attempts to use FU when none available (Count)
system.cpu.statFuBusy::SimdShift                    0      0.00%     27.52% # attempts to use FU when none available (Count)
system.cpu.statFuBusy::SimdShiftAcc                 0      0.00%     27.52% # attempts to use FU when none available (Count)
system.cpu.statFuBusy::SimdDiv                      0      0.00%     27.52% # attempts to use FU when none available (Count)
system.cpu.statFuBusy::SimdSqrt                     0      0.00%     27.52% # attempts to use FU when none available (Count)
system.cpu.statFuBusy::SimdFloatAdd                 0      0.00%     27.52% # attempts to use FU when none available (Count)
system.cpu.statFuBusy::SimdFloatAlu                 0      0.00%     27.52% # attempts to use FU when none available (Count)
system.cpu.statFuBusy::SimdFloatCmp                 0      0.00%     27.52% # attempts to use FU when none available (Count)
system.cpu.statFuBusy::SimdFloatCvt                 0      0.00%     27.52% # attempts to use FU when none available (Count)
system.cpu.statFuBusy::SimdFloatDiv                 0      0.00%     27.52% # attempts to use FU when none available (Count)
system.cpu.statFuBusy::SimdFloatMisc                0      0.00%     27.52% # attempts to use FU when none available (Count)
system.cpu.statFuBusy::SimdFloatMult                0      0.00%     27.52% # attempts to use FU when none available (Count)
system.cpu.statFuBusy::SimdFloatMultAcc             0      0.00%     27.52% # attempts to use FU when none available (Count)
system.cpu.statFuBusy::SimdFloatSqrt                0      0.00%     27.52% # attempts to use FU when none available (Count)
system.cpu.statFuBusy::SimdReduceAdd                0      0.00%     27.52% # attempts to use FU when none available (Count)
system.cpu.statFuBusy::SimdReduceAlu                0      0.00%     27.52% # attempts to use FU when none available (Count)
system.cpu.statFuBusy::SimdReduceCmp                0      0.00%     27.52% # attempts to use FU when none available (Count)
system.cpu.statFuBusy::SimdFloatReduceAdd            0      0.00%     27.52% # attempts to use FU when none available (Count)
system.cpu.statFuBusy::SimdFloatReduceCmp            0      0.00%     27.52% # attempts to use FU when none available (Count)
system.cpu.statFuBusy::SimdAes                      0      0.00%     27.52% # attempts to use FU when none available (Count)
system.cpu.statFuBusy::SimdAesMix                   0      0.00%     27.52% # attempts to use FU when none available (Count)
system.cpu.statFuBusy::SimdSha1Hash                 0      0.00%     27.52% # attempts to use FU when none available (Count)
system.cpu.statFuBusy::SimdSha1Hash2                0      0.00%     27.52% # attempts to use FU when none available (Count)
system.cpu.statFuBusy::SimdSha256Hash               0      0.00%     27.52% # attempts to use FU when none available (Count)
system.cpu.statFuBusy::SimdSha256Hash2              0      0.00%     27.52% # attempts to use FU when none available (Count)
system.cpu.statFuBusy::SimdShaSigma2                0      0.00%     27.52% # attempts to use FU when none available (Count)
system.cpu.statFuBusy::SimdShaSigma3                0      0.00%     27.52% # attempts to use FU when none available (Count)
system.cpu.statFuBusy::SimdPredAlu                  0      0.00%     27.52% # attempts to use FU when none available (Count)
system.cpu.statFuBusy::MemRead                 448707     30.02%     57.55% # attempts to use FU when none available (Count)
system.cpu.statFuBusy::MemWrite                426557     28.54%     86.09% # attempts to use FU when none available (Count)
system.cpu.statFuBusy::FloatMemRead            207935     13.91%    100.00% # attempts to use FU when none available (Count)
system.cpu.statFuBusy::FloatMemWrite                6      0.00%    100.00% # attempts to use FU when none available (Count)
system.cpu.statFuBusy::IprAccess                    0      0.00%    100.00% # attempts to use FU when none available (Count)
system.cpu.statFuBusy::InstPrefetch                 0      0.00%    100.00% # attempts to use FU when none available (Count)
system.cpu.statIssuedInstType_0::No_OpClass        28732      0.07%      0.07% # Number of instructions issued per FU type, per thread (Count)
system.cpu.statIssuedInstType_0::IntAlu      28853052     66.13%     66.20% # Number of instructions issued per FU type, per thread (Count)
system.cpu.statIssuedInstType_0::IntMult       479813      1.10%     67.30% # Number of instructions issued per FU type, per thread (Count)
system.cpu.statIssuedInstType_0::IntDiv        317975      0.73%     68.03% # Number of instructions issued per FU type, per thread (Count)
system.cpu.statIssuedInstType_0::FloatAdd        16384      0.04%     68.06% # Number of instructions issued per FU type, per thread (Count)
system.cpu.statIssuedInstType_0::FloatCmp        16387      0.04%     68.10% # Number of instructions issued per FU type, per thread (Count)
system.cpu.statIssuedInstType_0::FloatCvt        24579      0.06%     68.16% # Number of instructions issued per FU type, per thread (Count)
system.cpu.statIssuedInstType_0::FloatMult            0      0.00%     68.16% # Number of instructions issued per FU type, per thread (Count)
system.cpu.statIssuedInstType_0::FloatMultAcc       262144      0.60%     68.76% # Number of instructions issued per FU type, per thread (Count)
system.cpu.statIssuedInstType_0::FloatDiv            0      0.00%     68.76% # Number of instructions issued per FU type, per thread (Count)
system.cpu.statIssuedInstType_0::FloatMisc        16391      0.04%     68.80% # Number of instructions issued per FU type, per thread (Count)
system.cpu.statIssuedInstType_0::FloatSqrt            0      0.00%     68.80% # Number of instructions issued per FU type, per thread (Count)
system.cpu.statIssuedInstType_0::SimdAdd            0      0.00%     68.80% # Number of instructions issued per FU type, per thread (Count)
system.cpu.statIssuedInstType_0::SimdAddAcc            0      0.00%     68.80% # Number of instructions issued per FU type, per thread (Count)
system.cpu.statIssuedInstType_0::SimdAlu            0      0.00%     68.80% # Number of instructions issued per FU type, per thread (Count)
system.cpu.statIssuedInstType_0::SimdCmp            0      0.00%     68.80% # Number of instructions issued per FU type, per thread (Count)
system.cpu.statIssuedInstType_0::SimdCvt            0      0.00%     68.80% # Number of instructions issued per FU type, per thread (Count)
system.cpu.statIssuedInstType_0::SimdMisc            0      0.00%     68.80% # Number of instructions issued per FU type, per thread (Count)
system.cpu.statIssuedInstType_0::SimdMult            0      0.00%     68.80% # Number of instructions issued per FU type, per thread (Count)
system.cpu.statIssuedInstType_0::SimdMultAcc            0      0.00%     68.80% # Number of instructions issued per FU type, per thread (Count)
system.cpu.statIssuedInstType_0::SimdShift            0      0.00%     68.80% # Number of instructions issued per FU type, per thread (Count)
system.cpu.statIssuedInstType_0::SimdShiftAcc            0      0.00%     68.80% # Number of instructions issued per FU type, per thread (Count)
system.cpu.statIssuedInstType_0::SimdDiv            0      0.00%     68.80% # Number of instructions issued per FU type, per thread (Count)
system.cpu.statIssuedInstType_0::SimdSqrt            0      0.00%     68.80% # Number of instructions issued per FU type, per thread (Count)
system.cpu.statIssuedInstType_0::SimdFloatAdd            0      0.00%     68.80% # Number of instructions issued per FU type, per thread (Count)
system.cpu.statIssuedInstType_0::SimdFloatAlu            0      0.00%     68.80% # Number of instructions issued per FU type, per thread (Count)
system.cpu.statIssuedInstType_0::SimdFloatCmp            0      0.00%     68.80% # Number of instructions issued per FU type, per thread (Count)
system.cpu.statIssuedInstType_0::SimdFloatCvt            0      0.00%     68.80% # Number of instructions issued per FU type, per thread (Count)
system.cpu.statIssuedInstType_0::SimdFloatDiv            0      0.00%     68.80% # Number of instructions issued per FU type, per thread (Count)
system.cpu.statIssuedInstType_0::SimdFloatMisc            0      0.00%     68.80% # Number of instructions issued per FU type, per thread (Count)
system.cpu.statIssuedInstType_0::SimdFloatMult            0      0.00%     68.80% # Number of instructions issued per FU type, per thread (Count)
system.cpu.statIssuedInstType_0::SimdFloatMultAcc            0      0.00%     68.80% # Number of instructions issued per FU type, per thread (Count)
system.cpu.statIssuedInstType_0::SimdFloatSqrt            0      0.00%     68.80% # Number of instructions issued per FU type, per thread (Count)
system.cpu.statIssuedInstType_0::SimdReduceAdd            0      0.00%     68.80% # Number of instructions issued per FU type, per thread (Count)
system.cpu.statIssuedInstType_0::SimdReduceAlu            0      0.00%     68.80% # Number of instructions issued per FU type, per thread (Count)
system.cpu.statIssuedInstType_0::SimdReduceCmp            0      0.00%     68.80% # Number of instructions issued per FU type, per thread (Count)
system.cpu.statIssuedInstType_0::SimdFloatReduceAdd            0      0.00%     68.80% # Number of instructions issued per FU type, per thread (Count)
system.cpu.statIssuedInstType_0::SimdFloatReduceCmp            0      0.00%     68.80% # Number of instructions issued per FU type, per thread (Count)
system.cpu.statIssuedInstType_0::SimdAes            0      0.00%     68.80% # Number of instructions issued per FU type, per thread (Count)
system.cpu.statIssuedInstType_0::SimdAesMix            0      0.00%     68.80% # Number of instructions issued per FU type, per thread (Count)
system.cpu.statIssuedInstType_0::SimdSha1Hash            0      0.00%     68.80% # Number of instructions issued per FU type, per thread (Count)
system.cpu.statIssuedInstType_0::SimdSha1Hash2            0      0.00%     68.80% # Number of instructions issued per FU type, per thread (Count)
system.cpu.statIssuedInstType_0::SimdSha256Hash            0      0.00%     68.80% # Number of instructions issued per FU type, per thread (Count)
system.cpu.statIssuedInstType_0::SimdSha256Hash2            0      0.00%     68.80% # Number of instructions issued per FU type, per thread (Count)
system.cpu.statIssuedInstType_0::SimdShaSigma2            0      0.00%     68.80% # Number of instructions issued per FU type, per thread (Count)
system.cpu.statIssuedInstType_0::SimdShaSigma3            0      0.00%     68.80% # Number of instructions issued per FU type, per thread (Count)
system.cpu.statIssuedInstType_0::SimdPredAlu            0      0.00%     68.80% # Number of instructions issued per FU type, per thread (Count)
system.cpu.statIssuedInstType_0::MemRead      7628449     17.48%     86.28% # Number of instructions issued per FU type, per thread (Count)
system.cpu.statIssuedInstType_0::MemWrite      4374570     10.03%     96.31% # Number of instructions issued per FU type, per thread (Count)
system.cpu.statIssuedInstType_0::FloatMemRead      1320056      3.03%     99.33% # Number of instructions issued per FU type, per thread (Count)
system.cpu.statIssuedInstType_0::FloatMemWrite       290844      0.67%    100.00% # Number of instructions issued per FU type, per thread (Count)
system.cpu.statIssuedInstType_0::IprAccess            0      0.00%    100.00% # Number of instructions issued per FU type, per thread (Count)
system.cpu.statIssuedInstType_0::InstPrefetch            0      0.00%    100.00% # Number of instructions issued per FU type, per thread (Count)
system.cpu.statIssuedInstType_0::total       43629376                       # Number of instructions issued per FU type, per thread (Count)
system.cpu.issueRate                         1.205306                       # Inst issue rate ((Count/Cycle))
system.cpu.fuBusy                             1494585                       # FU busy when requested (Count)
system.cpu.fuBusyRate                        0.034256                       # FU busy rate (busy events/executed inst) ((Count/Count))
system.cpu.intInstQueueReads                120009763                       # Number of integer instruction queue reads (Count)
system.cpu.intInstQueueWrites                47046366                       # Number of integer instruction queue writes (Count)
system.cpu.intInstQueueWakeupAccesses        40993199                       # Number of integer instruction queue wakeup accesses (Count)
system.cpu.fpInstQueueReads                   4105215                       # Number of floating instruction queue reads (Count)
system.cpu.fpInstQueueWrites                  1041838                       # Number of floating instruction queue writes (Count)
system.cpu.fpInstQueueWakeupAccesses           995367                       # Number of floating instruction queue wakeup accesses (Count)
system.cpu.vecInstQueueReads                        0                       # Number of vector instruction queue reads (Count)
system.cpu.vecInstQueueWrites                       0                       # Number of vector instruction queue writes (Count)
system.cpu.vecInstQueueWakeupAccesses               0                       # Number of vector instruction queue wakeup accesses (Count)
system.cpu.intAluAccesses                    42937643                       # Number of integer alu accesses (Count)
system.cpu.fpAluAccesses                      2157586                       # Number of floating point alu accesses (Count)
system.cpu.vecAluAccesses                           0                       # Number of vector alu accesses (Count)
system.cpu.numInsts                          43337651                       # Number of executed instructions (Count)
system.cpu.numLoadInsts                       8849987                       # Number of load instructions executed (Count)
system.cpu.numSquashedInsts                    291725                       # Number of squashed instructions skipped in execute (Count)
system.cpu.numSwp                                   0                       # Number of swp insts executed (Count)
system.cpu.numNop                                   0                       # Number of nop insts executed (Count)
system.cpu.numRefs                           13498316                       # Number of memory reference insts executed (Count)
system.cpu.numBranches                        8809284                       # Number of branches executed (Count)
system.cpu.numStoreInsts                      4648329                       # Number of stores executed (Count)
system.cpu.numRate                           1.197247                       # Inst execution rate ((Count/Cycle))
system.cpu.timesIdled                           47973                       # Number of times that the entire CPU went into an idle state and unscheduled itself (Count)
system.cpu.idleCycles                          919430                       # Total number of cycles that the CPU has spent unscheduled due to idling (Cycle)
system.cpu.committedInsts                    39561848                       # Number of Instructions Simulated (Count)
system.cpu.committedOps                      39561863                       # Number of Ops (including micro ops) Simulated (Count)
system.cpu.cpi                               0.914966                       # CPI: Cycles Per Instruction ((Cycle/Count))
system.cpu.totalCpi                          0.914966                       # CPI: Total CPI of All Threads ((Cycle/Count))
system.cpu.ipc                               1.092937                       # IPC: Instructions Per Cycle ((Count/Cycle))
system.cpu.totalIpc                          1.092937                       # IPC: Total IPC of All Threads ((Count/Cycle))
system.cpu.intRegfileReads                   54294648                       # Number of integer regfile reads (Count)
system.cpu.intRegfileWrites                  28612095                       # Number of integer regfile writes (Count)
system.cpu.fpRegfileReads                     1179696                       # Number of floating regfile reads (Count)
system.cpu.fpRegfileWrites                     685035                       # Number of floating regfile writes (Count)
system.cpu.miscRegfileReads                   1623081                       # number of misc regfile reads (Count)
system.cpu.miscRegfileWrites                   335872                       # number of misc regfile writes (Count)
system.cpu.MemDepUnit__0.insertedLoads        7945141                       # Number of loads inserted to the mem dependence unit. (Count)
system.cpu.MemDepUnit__0.insertedStores       4814966                       # Number of stores inserted to the mem dependence unit. (Count)
system.cpu.MemDepUnit__0.conflictingLoads      1038305                       # Number of conflicting loads. (Count)
system.cpu.MemDepUnit__0.conflictingStores       730941                       # Number of conflicting stores. (Count)
system.cpu.MemDepUnit__1.insertedLoads              0                       # Number of loads inserted to the mem dependence unit. (Count)
system.cpu.MemDepUnit__1.insertedStores             0                       # Number of stores inserted to the mem dependence unit. (Count)
system.cpu.MemDepUnit__1.conflictingLoads            0                       # Number of conflicting loads. (Count)
system.cpu.MemDepUnit__1.conflictingStores            0                       # Number of conflicting stores. (Count)
system.cpu.MemDepUnit__2.insertedLoads              0                       # Number of loads inserted to the mem dependence unit. (Count)
system.cpu.MemDepUnit__2.insertedStores             0                       # Number of stores inserted to the mem dependence unit. (Count)
system.cpu.MemDepUnit__2.conflictingLoads            0                       # Number of conflicting loads. (Count)
system.cpu.MemDepUnit__2.conflictingStores            0                       # Number of conflicting stores. (Count)
system.cpu.MemDepUnit__3.insertedLoads              0                       # Number of loads inserted to the mem dependence unit. (Count)
system.cpu.MemDepUnit__3.insertedStores             0                       # Number of stores inserted to the mem dependence unit. (Count)
system.cpu.MemDepUnit__3.conflictingLoads            0                       # Number of conflicting loads. (Count)
system.cpu.MemDepUnit__3.conflictingStores            0                       # Number of conflicting stores. (Count)
system.cpu.branchPred.lookups                10482994                       # Number of BP lookups (Count)
system.cpu.branchPred.condPredicted           7947632                       # Number of conditional branches predicted (Count)
system.cpu.branchPred.condIncorrect            193289                       # Number of conditional branches incorrect (Count)
system.cpu.branchPred.BTBLookups              5693761                       # Number of BTB lookups (Count)
system.cpu.branchPred.BTBHits                 5669017                       # Number of BTB hits (Count)
system.cpu.branchPred.BTBHitRatio            0.995654                       # BTB Hit Ratio (Ratio)
system.cpu.branchPred.RASUsed                       0                       # Number of times the RAS was used to get a target. (Count)
system.cpu.branchPred.RASIncorrect                  0                       # Number of incorrect RAS predictions. (Count)
system.cpu.branchPred.indirectLookups          607412                       # Number of indirect predictor lookups. (Count)
system.cpu.branchPred.indirectHits             604845                       # Number of indirect target hits. (Count)
system.cpu.branchPred.indirectMisses             2567                       # Number of indirect misses. (Count)
system.cpu.branchPred.indirectMispredicted        20022                       # Number of mispredicted indirect branches. (Count)
system.cpu.commit.commitSquashedInsts         4262772                       # The number of squashed insts skipped by commit (Count)
system.cpu.commit.commitNonSpecStalls           28748                       # The number of times commit has been forced to stall to communicate backwards (Count)
system.cpu.commit.branchMispredicts            180828                       # The number of times a branch was mispredicted (Count)
system.cpu.commit.numCommittedDist::samples     34638200                       # Number of insts commited each cycle (Count)
system.cpu.commit.numCommittedDist::mean     1.142145                       # Number of insts commited each cycle (Count)
system.cpu.commit.numCommittedDist::stdev     2.467520                       # Number of insts commited each cycle (Count)
system.cpu.commit.numCommittedDist::underflows            0      0.00%      0.00% # Number of insts commited each cycle (Count)
system.cpu.commit.numCommittedDist::0        25893953     74.76%     74.76% # Number of insts commited each cycle (Count)
system.cpu.commit.numCommittedDist::1         2231432      6.44%     81.20% # Number of insts commited each cycle (Count)
system.cpu.commit.numCommittedDist::2         1075216      3.10%     84.30% # Number of insts commited each cycle (Count)
system.cpu.commit.numCommittedDist::3          898468      2.59%     86.90% # Number of insts commited each cycle (Count)
system.cpu.commit.numCommittedDist::4          447498      1.29%     88.19% # Number of insts commited each cycle (Count)
system.cpu.commit.numCommittedDist::5          384934      1.11%     89.30% # Number of insts commited each cycle (Count)
system.cpu.commit.numCommittedDist::6          354902      1.02%     90.32% # Number of insts commited each cycle (Count)
system.cpu.commit.numCommittedDist::7          173855      0.50%     90.83% # Number of insts commited each cycle (Count)
system.cpu.commit.numCommittedDist::8         3177942      9.17%    100.00% # Number of insts commited each cycle (Count)
system.cpu.commit.numCommittedDist::overflows            0      0.00%    100.00% # Number of insts commited each cycle (Count)
system.cpu.commit.numCommittedDist::min_value            0                       # Number of insts commited each cycle (Count)
system.cpu.commit.numCommittedDist::max_value            8                       # Number of insts commited each cycle (Count)
system.cpu.commit.numCommittedDist::total     34638200                       # Number of insts commited each cycle (Count)
system.cpu.commit.instsCommitted             39561848                       # Number of instructions committed (Count)
system.cpu.commit.opsCommitted               39561863                       # Number of ops (including micro ops) committed (Count)
system.cpu.commit.memRefs                    11515197                       # Number of memory references committed (Count)
system.cpu.commit.loads                       7164559                       # Number of loads committed (Count)
system.cpu.commit.amos                             17                       # Number of atomic instructions committed (Count)
system.cpu.commit.membars                          25                       # Number of memory barriers committed (Count)
system.cpu.commit.branches                    8127089                       # Number of branches committed (Count)
system.cpu.commit.vectorInstructions                0                       # Number of committed Vector instructions. (Count)
system.cpu.commit.floating                     995348                       # Number of committed floating point instructions. (Count)
system.cpu.commit.integer                    38444128                       # Number of committed integer instructions. (Count)
system.cpu.commit.functionCalls               1174816                       # Number of function calls committed. (Count)
system.cpu.commit.committedInstType_0::No_OpClass        24601      0.06%      0.06% # Class of committed instruction (Count)
system.cpu.commit.committedInstType_0::IntAlu     26890436     67.97%     68.03% # Class of committed instruction (Count)
system.cpu.commit.committedInstType_0::IntMult       479462      1.21%     69.24% # Class of committed instruction (Count)
system.cpu.commit.committedInstType_0::IntDiv       316295      0.80%     70.04% # Class of committed instruction (Count)
system.cpu.commit.committedInstType_0::FloatAdd        16384      0.04%     70.09% # Class of committed instruction (Count)
system.cpu.commit.committedInstType_0::FloatCmp        16384      0.04%     70.13% # Class of committed instruction (Count)
system.cpu.commit.committedInstType_0::FloatCvt        24576      0.06%     70.19% # Class of committed instruction (Count)
system.cpu.commit.committedInstType_0::FloatMult            0      0.00%     70.19% # Class of committed instruction (Count)
system.cpu.commit.committedInstType_0::FloatMultAcc       262144      0.66%     70.85% # Class of committed instruction (Count)
system.cpu.commit.committedInstType_0::FloatDiv            0      0.00%     70.85% # Class of committed instruction (Count)
system.cpu.commit.committedInstType_0::FloatMisc        16384      0.04%     70.89% # Class of committed instruction (Count)
system.cpu.commit.committedInstType_0::FloatSqrt            0      0.00%     70.89% # Class of committed instruction (Count)
system.cpu.commit.committedInstType_0::SimdAdd            0      0.00%     70.89% # Class of committed instruction (Count)
system.cpu.commit.committedInstType_0::SimdAddAcc            0      0.00%     70.89% # Class of committed instruction (Count)
system.cpu.commit.committedInstType_0::SimdAlu            0      0.00%     70.89% # Class of committed instruction (Count)
system.cpu.commit.committedInstType_0::SimdCmp            0      0.00%     70.89% # Class of committed instruction (Count)
system.cpu.commit.committedInstType_0::SimdCvt            0      0.00%     70.89% # Class of committed instruction (Count)
system.cpu.commit.committedInstType_0::SimdMisc            0      0.00%     70.89% # Class of committed instruction (Count)
system.cpu.commit.committedInstType_0::SimdMult            0      0.00%     70.89% # Class of committed instruction (Count)
system.cpu.commit.committedInstType_0::SimdMultAcc            0      0.00%     70.89% # Class of committed instruction (Count)
system.cpu.commit.committedInstType_0::SimdShift            0      0.00%     70.89% # Class of committed instruction (Count)
system.cpu.commit.committedInstType_0::SimdShiftAcc            0      0.00%     70.89% # Class of committed instruction (Count)
system.cpu.commit.committedInstType_0::SimdDiv            0      0.00%     70.89% # Class of committed instruction (Count)
system.cpu.commit.committedInstType_0::SimdSqrt            0      0.00%     70.89% # Class of committed instruction (Count)
system.cpu.commit.committedInstType_0::SimdFloatAdd            0      0.00%     70.89% # Class of committed instruction (Count)
system.cpu.commit.committedInstType_0::SimdFloatAlu            0      0.00%     70.89% # Class of committed instruction (Count)
system.cpu.commit.committedInstType_0::SimdFloatCmp            0      0.00%     70.89% # Class of committed instruction (Count)
system.cpu.commit.committedInstType_0::SimdFloatCvt            0      0.00%     70.89% # Class of committed instruction (Count)
system.cpu.commit.committedInstType_0::SimdFloatDiv            0      0.00%     70.89% # Class of committed instruction (Count)
system.cpu.commit.committedInstType_0::SimdFloatMisc            0      0.00%     70.89% # Class of committed instruction (Count)
system.cpu.commit.committedInstType_0::SimdFloatMult            0      0.00%     70.89% # Class of committed instruction (Count)
system.cpu.commit.committedInstType_0::SimdFloatMultAcc            0      0.00%     70.89% # Class of committed instruction (Count)
system.cpu.commit.committedInstType_0::SimdFloatSqrt            0      0.00%     70.89% # Class of committed instruction (Count)
system.cpu.commit.committedInstType_0::SimdReduceAdd            0      0.00%     70.89% # Class of committed instruction (Count)
system.cpu.commit.committedInstType_0::SimdReduceAlu            0      0.00%     70.89% # Class of committed instruction (Count)
system.cpu.commit.committedInstType_0::SimdReduceCmp            0      0.00%     70.89% # Class of committed instruction (Count)
system.cpu.commit.committedInstType_0::SimdFloatReduceAdd            0      0.00%     70.89% # Class of committed instruction (Count)
system.cpu.commit.committedInstType_0::SimdFloatReduceCmp            0      0.00%     70.89% # Class of committed instruction (Count)
system.cpu.commit.committedInstType_0::SimdAes            0      0.00%     70.89% # Class of committed instruction (Count)
system.cpu.commit.committedInstType_0::SimdAesMix            0      0.00%     70.89% # Class of committed instruction (Count)
system.cpu.commit.committedInstType_0::SimdSha1Hash            0      0.00%     70.89% # Class of committed instruction (Count)
system.cpu.commit.committedInstType_0::SimdSha1Hash2            0      0.00%     70.89% # Class of committed instruction (Count)
system.cpu.commit.committedInstType_0::SimdSha256Hash            0      0.00%     70.89% # Class of committed instruction (Count)
system.cpu.commit.committedInstType_0::SimdSha256Hash2            0      0.00%     70.89% # Class of committed instruction (Count)
system.cpu.commit.committedInstType_0::SimdShaSigma2            0      0.00%     70.89% # Class of committed instruction (Count)
system.cpu.commit.committedInstType_0::SimdShaSigma3            0      0.00%     70.89% # Class of committed instruction (Count)
system.cpu.commit.committedInstType_0::SimdPredAlu            0      0.00%     70.89% # Class of committed instruction (Count)
system.cpu.commit.committedInstType_0::MemRead      6795931     17.18%     88.07% # Class of committed instruction (Count)
system.cpu.commit.committedInstType_0::MemWrite      4059790     10.26%     98.33% # Class of committed instruction (Count)
system.cpu.commit.committedInstType_0::FloatMemRead       368645      0.93%     99.26% # Class of committed instruction (Count)
system.cpu.commit.committedInstType_0::FloatMemWrite       290831      0.74%    100.00% # Class of committed instruction (Count)
system.cpu.commit.committedInstType_0::IprAccess            0      0.00%    100.00% # Class of committed instruction (Count)
system.cpu.commit.committedInstType_0::InstPrefetch            0      0.00%    100.00% # Class of committed instruction (Count)
system.cpu.commit.committedInstType_0::total     39561863                       # Class of committed instruction (Count)
system.cpu.commit.commitEligibleSamples       3177942                       # number cycles where commit BW limit reached (Cycle)
system.cpu.dcache.demandHits::cpu.data        8879379                       # number of demand (read+write) hits (Count)
system.cpu.dcache.demandHits::total           8879379                       # number of demand (read+write) hits (Count)
system.cpu.dcache.overallHits::cpu.data       8879379                       # number of overall hits (Count)
system.cpu.dcache.overallHits::total          8879379                       # number of overall hits (Count)
system.cpu.dcache.demandMisses::cpu.data      1467106                       # number of demand (read+write) misses (Count)
system.cpu.dcache.demandMisses::total         1467106                       # number of demand (read+write) misses (Count)
system.cpu.dcache.overallMisses::cpu.data      1467106                       # number of overall misses (Count)
system.cpu.dcache.overallMisses::total        1467106                       # number of overall misses (Count)
system.cpu.dcache.demandMissLatency::cpu.data  62421403164                       # number of demand (read+write) miss ticks (Tick)
system.cpu.dcache.demandMissLatency::total  62421403164                       # number of demand (read+write) miss ticks (Tick)
system.cpu.dcache.overallMissLatency::cpu.data  62421403164                       # number of overall miss ticks (Tick)
system.cpu.dcache.overallMissLatency::total  62421403164                       # number of overall miss ticks (Tick)
system.cpu.dcache.demandAccesses::cpu.data     10346485                       # number of demand (read+write) accesses (Count)
system.cpu.dcache.demandAccesses::total      10346485                       # number of demand (read+write) accesses (Count)
system.cpu.dcache.overallAccesses::cpu.data     10346485                       # number of overall (read+write) accesses (Count)
system.cpu.dcache.overallAccesses::total     10346485                       # number of overall (read+write) accesses (Count)
system.cpu.dcache.demandMissRate::cpu.data     0.141798                       # miss rate for demand accesses (Ratio)
system.cpu.dcache.demandMissRate::total      0.141798                       # miss rate for demand accesses (Ratio)
system.cpu.dcache.overallMissRate::cpu.data     0.141798                       # miss rate for overall accesses (Ratio)
system.cpu.dcache.overallMissRate::total     0.141798                       # miss rate for overall accesses (Ratio)
system.cpu.dcache.demandAvgMissLatency::cpu.data 42547.302761                       # average overall miss latency ((Cycle/Count))
system.cpu.dcache.demandAvgMissLatency::total 42547.302761                       # average overall miss latency ((Cycle/Count))
system.cpu.dcache.overallAvgMissLatency::cpu.data 42547.302761                       # average overall miss latency ((Cycle/Count))
system.cpu.dcache.overallAvgMissLatency::total 42547.302761                       # average overall miss latency ((Cycle/Count))
system.cpu.dcache.blockedCycles::no_mshrs      3985702                       # number of cycles access was blocked (Cycle)
system.cpu.dcache.blockedCycles::no_targets       107617                       # number of cycles access was blocked (Cycle)
system.cpu.dcache.blockedCauses::no_mshrs       144459                       # number of times access was blocked (Count)
system.cpu.dcache.blockedCauses::no_targets         1275                       # number of times access was blocked (Count)
system.cpu.dcache.avgBlocked::no_mshrs      27.590541                       # average number of cycles each access was blocked ((Cycle/Count))
system.cpu.dcache.avgBlocked::no_targets    84.405490                       # average number of cycles each access was blocked ((Cycle/Count))
system.cpu.dcache.writebacks::writebacks       154130                       # number of writebacks (Count)
system.cpu.dcache.writebacks::total            154130                       # number of writebacks (Count)
system.cpu.dcache.demandMshrHits::cpu.data       999658                       # number of demand (read+write) MSHR hits (Count)
system.cpu.dcache.demandMshrHits::total        999658                       # number of demand (read+write) MSHR hits (Count)
system.cpu.dcache.overallMshrHits::cpu.data       999658                       # number of overall MSHR hits (Count)
system.cpu.dcache.overallMshrHits::total       999658                       # number of overall MSHR hits (Count)
system.cpu.dcache.demandMshrMisses::cpu.data       467448                       # number of demand (read+write) MSHR misses (Count)
system.cpu.dcache.demandMshrMisses::total       467448                       # number of demand (read+write) MSHR misses (Count)
system.cpu.dcache.overallMshrMisses::cpu.data       467448                       # number of overall MSHR misses (Count)
system.cpu.dcache.overallMshrMisses::total       467448                       # number of overall MSHR misses (Count)
system.cpu.dcache.demandMshrMissLatency::cpu.data  24320632895                       # number of demand (read+write) MSHR miss ticks (Tick)
system.cpu.dcache.demandMshrMissLatency::total  24320632895                       # number of demand (read+write) MSHR miss ticks (Tick)
system.cpu.dcache.overallMshrMissLatency::cpu.data  24320632895                       # number of overall MSHR miss ticks (Tick)
system.cpu.dcache.overallMshrMissLatency::total  24320632895                       # number of overall MSHR miss ticks (Tick)
system.cpu.dcache.demandMshrMissRate::cpu.data     0.045179                       # mshr miss ratio for demand accesses (Ratio)
system.cpu.dcache.demandMshrMissRate::total     0.045179                       # mshr miss ratio for demand accesses (Ratio)
system.cpu.dcache.overallMshrMissRate::cpu.data     0.045179                       # mshr miss ratio for overall accesses (Ratio)
system.cpu.dcache.overallMshrMissRate::total     0.045179                       # mshr miss ratio for overall accesses (Ratio)
system.cpu.dcache.demandAvgMshrMissLatency::cpu.data 52028.531291                       # average overall mshr miss latency ((Cycle/Count))
system.cpu.dcache.demandAvgMshrMissLatency::total 52028.531291                       # average overall mshr miss latency ((Cycle/Count))
system.cpu.dcache.overallAvgMshrMissLatency::cpu.data 52028.531291                       # average overall mshr miss latency ((Cycle/Count))
system.cpu.dcache.overallAvgMshrMissLatency::total 52028.531291                       # average overall mshr miss latency ((Cycle/Count))
system.cpu.dcache.replacements                 467420                       # number of replacements (Count)
system.cpu.dcache.LoadLockedReq.hits::cpu.data            8                       # number of LoadLockedReq hits (Count)
system.cpu.dcache.LoadLockedReq.hits::total            8                       # number of LoadLockedReq hits (Count)
system.cpu.dcache.LoadLockedReq.misses::cpu.data            5                       # number of LoadLockedReq misses (Count)
system.cpu.dcache.LoadLockedReq.misses::total            5                       # number of LoadLockedReq misses (Count)
system.cpu.dcache.LoadLockedReq.missLatency::cpu.data       308000                       # number of LoadLockedReq miss ticks (Tick)
system.cpu.dcache.LoadLockedReq.missLatency::total       308000                       # number of LoadLockedReq miss ticks (Tick)
system.cpu.dcache.LoadLockedReq.accesses::cpu.data           13                       # number of LoadLockedReq accesses(hits+misses) (Count)
system.cpu.dcache.LoadLockedReq.accesses::total           13                       # number of LoadLockedReq accesses(hits+misses) (Count)
system.cpu.dcache.LoadLockedReq.missRate::cpu.data     0.384615                       # miss rate for LoadLockedReq accesses (Ratio)
system.cpu.dcache.LoadLockedReq.missRate::total     0.384615                       # miss rate for LoadLockedReq accesses (Ratio)
system.cpu.dcache.LoadLockedReq.avgMissLatency::cpu.data        61600                       # average LoadLockedReq miss latency ((Tick/Count))
system.cpu.dcache.LoadLockedReq.avgMissLatency::total        61600                       # average LoadLockedReq miss latency ((Tick/Count))
system.cpu.dcache.LoadLockedReq.mshrHits::cpu.data            2                       # number of LoadLockedReq MSHR hits (Count)
system.cpu.dcache.LoadLockedReq.mshrHits::total            2                       # number of LoadLockedReq MSHR hits (Count)
system.cpu.dcache.LoadLockedReq.mshrMisses::cpu.data            3                       # number of LoadLockedReq MSHR misses (Count)
system.cpu.dcache.LoadLockedReq.mshrMisses::total            3                       # number of LoadLockedReq MSHR misses (Count)
system.cpu.dcache.LoadLockedReq.mshrMissLatency::cpu.data       190000                       # number of LoadLockedReq MSHR miss ticks (Tick)
system.cpu.dcache.LoadLockedReq.mshrMissLatency::total       190000                       # number of LoadLockedReq MSHR miss ticks (Tick)
system.cpu.dcache.LoadLockedReq.mshrMissRate::cpu.data     0.230769                       # mshr miss rate for LoadLockedReq accesses (Ratio)
system.cpu.dcache.LoadLockedReq.mshrMissRate::total     0.230769                       # mshr miss rate for LoadLockedReq accesses (Ratio)
system.cpu.dcache.LoadLockedReq.avgMshrMissLatency::cpu.data 63333.333333                       # average LoadLockedReq mshr miss latency ((Tick/Count))
system.cpu.dcache.LoadLockedReq.avgMshrMissLatency::total 63333.333333                       # average LoadLockedReq mshr miss latency ((Tick/Count))
system.cpu.dcache.ReadReq.hits::cpu.data      4903561                       # number of ReadReq hits (Count)
system.cpu.dcache.ReadReq.hits::total         4903561                       # number of ReadReq hits (Count)
system.cpu.dcache.ReadReq.misses::cpu.data      1092312                       # number of ReadReq misses (Count)
system.cpu.dcache.ReadReq.misses::total       1092312                       # number of ReadReq misses (Count)
system.cpu.dcache.ReadReq.missLatency::cpu.data  52274113500                       # number of ReadReq miss ticks (Tick)
system.cpu.dcache.ReadReq.missLatency::total  52274113500                       # number of ReadReq miss ticks (Tick)
system.cpu.dcache.ReadReq.accesses::cpu.data      5995873                       # number of ReadReq accesses(hits+misses) (Count)
system.cpu.dcache.ReadReq.accesses::total      5995873                       # number of ReadReq accesses(hits+misses) (Count)
system.cpu.dcache.ReadReq.missRate::cpu.data     0.182177                       # miss rate for ReadReq accesses (Ratio)
system.cpu.dcache.ReadReq.missRate::total     0.182177                       # miss rate for ReadReq accesses (Ratio)
system.cpu.dcache.ReadReq.avgMissLatency::cpu.data 47856.394052                       # average ReadReq miss latency ((Tick/Count))
system.cpu.dcache.ReadReq.avgMissLatency::total 47856.394052                       # average ReadReq miss latency ((Tick/Count))
system.cpu.dcache.ReadReq.mshrHits::cpu.data       717809                       # number of ReadReq MSHR hits (Count)
system.cpu.dcache.ReadReq.mshrHits::total       717809                       # number of ReadReq MSHR hits (Count)
system.cpu.dcache.ReadReq.mshrMisses::cpu.data       374503                       # number of ReadReq MSHR misses (Count)
system.cpu.dcache.ReadReq.mshrMisses::total       374503                       # number of ReadReq MSHR misses (Count)
system.cpu.dcache.ReadReq.mshrMissLatency::cpu.data  21910667500                       # number of ReadReq MSHR miss ticks (Tick)
system.cpu.dcache.ReadReq.mshrMissLatency::total  21910667500                       # number of ReadReq MSHR miss ticks (Tick)
system.cpu.dcache.ReadReq.mshrMissRate::cpu.data     0.062460                       # mshr miss rate for ReadReq accesses (Ratio)
system.cpu.dcache.ReadReq.mshrMissRate::total     0.062460                       # mshr miss rate for ReadReq accesses (Ratio)
system.cpu.dcache.ReadReq.avgMshrMissLatency::cpu.data 58505.986601                       # average ReadReq mshr miss latency ((Tick/Count))
system.cpu.dcache.ReadReq.avgMshrMissLatency::total 58505.986601                       # average ReadReq mshr miss latency ((Tick/Count))
system.cpu.dcache.StoreCondReq.hits::cpu.data            9                       # number of StoreCondReq hits (Count)
system.cpu.dcache.StoreCondReq.hits::total            9                       # number of StoreCondReq hits (Count)
system.cpu.dcache.StoreCondReq.accesses::cpu.data            9                       # number of StoreCondReq accesses(hits+misses) (Count)
system.cpu.dcache.StoreCondReq.accesses::total            9                       # number of StoreCondReq accesses(hits+misses) (Count)
system.cpu.dcache.SwapReq.hits::cpu.data           16                       # number of SwapReq hits (Count)
system.cpu.dcache.SwapReq.hits::total              16                       # number of SwapReq hits (Count)
system.cpu.dcache.SwapReq.misses::cpu.data            1                       # number of SwapReq misses (Count)
system.cpu.dcache.SwapReq.misses::total             1                       # number of SwapReq misses (Count)
system.cpu.dcache.SwapReq.missLatency::cpu.data       169999                       # number of SwapReq miss ticks (Tick)
system.cpu.dcache.SwapReq.missLatency::total       169999                       # number of SwapReq miss ticks (Tick)
system.cpu.dcache.SwapReq.accesses::cpu.data           17                       # number of SwapReq accesses(hits+misses) (Count)
system.cpu.dcache.SwapReq.accesses::total           17                       # number of SwapReq accesses(hits+misses) (Count)
system.cpu.dcache.SwapReq.missRate::cpu.data     0.058824                       # miss rate for SwapReq accesses (Ratio)
system.cpu.dcache.SwapReq.missRate::total     0.058824                       # miss rate for SwapReq accesses (Ratio)
system.cpu.dcache.SwapReq.avgMissLatency::cpu.data       169999                       # average SwapReq miss latency ((Tick/Count))
system.cpu.dcache.SwapReq.avgMissLatency::total       169999                       # average SwapReq miss latency ((Tick/Count))
system.cpu.dcache.SwapReq.mshrMisses::cpu.data            1                       # number of SwapReq MSHR misses (Count)
system.cpu.dcache.SwapReq.mshrMisses::total            1                       # number of SwapReq MSHR misses (Count)
system.cpu.dcache.SwapReq.mshrMissLatency::cpu.data       168999                       # number of SwapReq MSHR miss ticks (Tick)
system.cpu.dcache.SwapReq.mshrMissLatency::total       168999                       # number of SwapReq MSHR miss ticks (Tick)
system.cpu.dcache.SwapReq.mshrMissRate::cpu.data     0.058824                       # mshr miss rate for SwapReq accesses (Ratio)
system.cpu.dcache.SwapReq.mshrMissRate::total     0.058824                       # mshr miss rate for SwapReq accesses (Ratio)
system.cpu.dcache.SwapReq.avgMshrMissLatency::cpu.data       168999                       # average SwapReq mshr miss latency ((Tick/Count))
system.cpu.dcache.SwapReq.avgMshrMissLatency::total       168999                       # average SwapReq mshr miss latency ((Tick/Count))
system.cpu.dcache.WriteReq.hits::cpu.data      3975818                       # number of WriteReq hits (Count)
system.cpu.dcache.WriteReq.hits::total        3975818                       # number of WriteReq hits (Count)
system.cpu.dcache.WriteReq.misses::cpu.data       374794                       # number of WriteReq misses (Count)
system.cpu.dcache.WriteReq.misses::total       374794                       # number of WriteReq misses (Count)
system.cpu.dcache.WriteReq.missLatency::cpu.data  10147289664                       # number of WriteReq miss ticks (Tick)
system.cpu.dcache.WriteReq.missLatency::total  10147289664                       # number of WriteReq miss ticks (Tick)
system.cpu.dcache.WriteReq.accesses::cpu.data      4350612                       # number of WriteReq accesses(hits+misses) (Count)
system.cpu.dcache.WriteReq.accesses::total      4350612                       # number of WriteReq accesses(hits+misses) (Count)
system.cpu.dcache.WriteReq.missRate::cpu.data     0.086147                       # miss rate for WriteReq accesses (Ratio)
system.cpu.dcache.WriteReq.missRate::total     0.086147                       # miss rate for WriteReq accesses (Ratio)
system.cpu.dcache.WriteReq.avgMissLatency::cpu.data 27074.311926                       # average WriteReq miss latency ((Tick/Count))
system.cpu.dcache.WriteReq.avgMissLatency::total 27074.311926                       # average WriteReq miss latency ((Tick/Count))
system.cpu.dcache.WriteReq.mshrHits::cpu.data       281849                       # number of WriteReq MSHR hits (Count)
system.cpu.dcache.WriteReq.mshrHits::total       281849                       # number of WriteReq MSHR hits (Count)
system.cpu.dcache.WriteReq.mshrMisses::cpu.data        92945                       # number of WriteReq MSHR misses (Count)
system.cpu.dcache.WriteReq.mshrMisses::total        92945                       # number of WriteReq MSHR misses (Count)
system.cpu.dcache.WriteReq.mshrMissLatency::cpu.data   2409965395                       # number of WriteReq MSHR miss ticks (Tick)
system.cpu.dcache.WriteReq.mshrMissLatency::total   2409965395                       # number of WriteReq MSHR miss ticks (Tick)
system.cpu.dcache.WriteReq.mshrMissRate::cpu.data     0.021364                       # mshr miss rate for WriteReq accesses (Ratio)
system.cpu.dcache.WriteReq.mshrMissRate::total     0.021364                       # mshr miss rate for WriteReq accesses (Ratio)
system.cpu.dcache.WriteReq.avgMshrMissLatency::cpu.data 25928.940718                       # average WriteReq mshr miss latency ((Tick/Count))
system.cpu.dcache.WriteReq.avgMshrMissLatency::total 25928.940718                       # average WriteReq mshr miss latency ((Tick/Count))
system.cpu.dcache.power_state.pwrStateResidencyTicks::UNDEFINED  18098871500                       # Cumulative time (in ticks) in various power states (Tick)
system.cpu.dcache.tags.tagsInUse            31.997895                       # Average ticks per tags in use ((Tick/Count))
system.cpu.dcache.tags.totalRefs              9346864                       # Total number of references to valid blocks. (Count)
system.cpu.dcache.tags.sampledRefs             467452                       # Sample count of references to valid blocks. (Count)
system.cpu.dcache.tags.avgRefs              19.995345                       # Average number of references to valid blocks. ((Count/Count))
system.cpu.dcache.tags.warmupTick              152000                       # The tick when the warmup percentage was hit. (Tick)
system.cpu.dcache.tags.occupancies::cpu.data    31.997895                       # Average occupied blocks per tick, per requestor ((Count/Tick))
system.cpu.dcache.tags.avgOccs::cpu.data     0.999934                       # Average percentage of cache occupancy ((Ratio/Tick))
system.cpu.dcache.tags.avgOccs::total        0.999934                       # Average percentage of cache occupancy ((Ratio/Tick))
system.cpu.dcache.tags.occupanciesTaskId::1024           32                       # Occupied blocks per task id (Count)
system.cpu.dcache.tags.ageTaskId_1024::0           32                       # Occupied blocks per task id, per block age (Count)
system.cpu.dcache.tags.ratioOccsTaskId::1024            1                       # Ratio of occupied blocks and all blocks, per task id (Ratio)
system.cpu.dcache.tags.tagAccesses           21160500                       # Number of tag accesses (Count)
system.cpu.dcache.tags.dataAccesses          21160500                       # Number of data accesses (Count)
system.cpu.dcache.tags.power_state.pwrStateResidencyTicks::UNDEFINED  18098871500                       # Cumulative time (in ticks) in various power states (Tick)
system.cpu.decode.idleCycles                  5501978                       # Number of cycles decode is idle (Cycle)
system.cpu.decode.blockedCycles              21104509                       # Number of cycles decode is blocked (Cycle)
system.cpu.decode.runCycles                   7409614                       # Number of cycles decode is running (Cycle)
system.cpu.decode.unblockCycles               1076551                       # Number of cycles decode is unblocking (Cycle)
system.cpu.decode.squashCycles                 185662                       # Number of cycles decode is squashing (Cycle)
system.cpu.decode.branchResolved              5374278                       # Number of times decode resolved a branch (Count)
system.cpu.decode.branchMispred                 12492                       # Number of times decode detected a branch misprediction (Count)
system.cpu.decode.decodedInsts               45759515                       # Number of instructions handled by decode (Count)
system.cpu.decode.squashedInsts                 28375                       # Number of squashed instructions handled by decode (Count)
system.cpu.dtb_walker_cache.blockedCycles::no_mshrs            0                       # number of cycles access was blocked (Cycle)
system.cpu.dtb_walker_cache.blockedCycles::no_targets            0                       # number of cycles access was blocked (Cycle)
system.cpu.dtb_walker_cache.blockedCauses::no_mshrs            0                       # number of times access was blocked (Count)
system.cpu.dtb_walker_cache.blockedCauses::no_targets            0                       # number of times access was blocked (Count)
system.cpu.dtb_walker_cache.avgBlocked::no_mshrs          nan                       # average number of cycles each access was blocked ((Cycle/Count))
system.cpu.dtb_walker_cache.avgBlocked::no_targets          nan                       # average number of cycles each access was blocked ((Cycle/Count))
system.cpu.dtb_walker_cache.replacements            0                       # number of replacements (Count)
system.cpu.dtb_walker_cache.power_state.pwrStateResidencyTicks::UNDEFINED  18098871500                       # Cumulative time (in ticks) in various power states (Tick)
system.cpu.dtb_walker_cache.tags.tagsInUse            0                       # Average ticks per tags in use ((Tick/Count))
system.cpu.dtb_walker_cache.tags.totalRefs            0                       # Total number of references to valid blocks. (Count)
system.cpu.dtb_walker_cache.tags.sampledRefs            0                       # Sample count of references to valid blocks. (Count)
system.cpu.dtb_walker_cache.tags.avgRefs          nan                       # Average number of references to valid blocks. ((Count/Count))
system.cpu.dtb_walker_cache.tags.warmupTick            0                       # The tick when the warmup percentage was hit. (Tick)
system.cpu.dtb_walker_cache.tags.tagAccesses            0                       # Number of tag accesses (Count)
system.cpu.dtb_walker_cache.tags.dataAccesses            0                       # Number of data accesses (Count)
system.cpu.dtb_walker_cache.tags.power_state.pwrStateResidencyTicks::UNDEFINED  18098871500                       # Cumulative time (in ticks) in various power states (Tick)
system.cpu.fetch.icacheStallCycles            7401528                       # Number of cycles fetch is stalled on an Icache miss (Cycle)
system.cpu.fetch.insts                       47835175                       # Number of instructions fetch has processed (Count)
system.cpu.fetch.branches                    10482994                       # Number of branches that fetch encountered (Count)
system.cpu.fetch.predictedBranches            6273862                       # Number of branches that fetch has predicted taken (Count)
system.cpu.fetch.cycles                      27678325                       # Number of cycles fetch has run and was not squashing or blocked (Cycle)
system.cpu.fetch.squashCycles                  396262                       # Number of cycles fetch has spent squashing (Cycle)
system.cpu.fetch.miscStallCycles                  206                       # Number of cycles fetch has spent waiting on interrupts, or bad addresses, or out of MSHRs (Cycle)
system.cpu.fetch.pendingTrapStallCycles            62                       # Number of stall cycles due to pending traps (Cycle)
system.cpu.fetch.icacheWaitRetryStallCycles           62                       # Number of stall cycles due to full MSHR (Cycle)
system.cpu.fetch.cacheLines                   5788555                       # Number of cache lines fetched (Count)
system.cpu.fetch.icacheSquashes                 70335                       # Number of outstanding Icache misses that were squashed (Count)
system.cpu.fetch.nisnDist::samples           35278314                       # Number of instructions fetched each cycle (Total) (Count)
system.cpu.fetch.nisnDist::mean              1.355940                       # Number of instructions fetched each cycle (Total) (Count)
system.cpu.fetch.nisnDist::stdev             2.500543                       # Number of instructions fetched each cycle (Total) (Count)
system.cpu.fetch.nisnDist::underflows               0      0.00%      0.00% # Number of instructions fetched each cycle (Total) (Count)
system.cpu.fetch.nisnDist::0                 24882855     70.53%     70.53% # Number of instructions fetched each cycle (Total) (Count)
system.cpu.fetch.nisnDist::1                  1489648      4.22%     74.76% # Number of instructions fetched each cycle (Total) (Count)
system.cpu.fetch.nisnDist::2                  1406019      3.99%     78.74% # Number of instructions fetched each cycle (Total) (Count)
system.cpu.fetch.nisnDist::3                  1133451      3.21%     81.95% # Number of instructions fetched each cycle (Total) (Count)
system.cpu.fetch.nisnDist::4                   996192      2.82%     84.78% # Number of instructions fetched each cycle (Total) (Count)
system.cpu.fetch.nisnDist::5                  1537941      4.36%     89.14% # Number of instructions fetched each cycle (Total) (Count)
system.cpu.fetch.nisnDist::6                   733389      2.08%     91.22% # Number of instructions fetched each cycle (Total) (Count)
system.cpu.fetch.nisnDist::7                   732115      2.08%     93.29% # Number of instructions fetched each cycle (Total) (Count)
system.cpu.fetch.nisnDist::8                  2366704      6.71%    100.00% # Number of instructions fetched each cycle (Total) (Count)
system.cpu.fetch.nisnDist::overflows                0      0.00%    100.00% # Number of instructions fetched each cycle (Total) (Count)
system.cpu.fetch.nisnDist::min_value                0                       # Number of instructions fetched each cycle (Total) (Count)
system.cpu.fetch.nisnDist::max_value                8                       # Number of instructions fetched each cycle (Total) (Count)
system.cpu.fetch.nisnDist::total             35278314                       # Number of instructions fetched each cycle (Total) (Count)
system.cpu.fetch.branchRate                  0.289604                       # Number of branch fetches per cycle (Ratio)
system.cpu.fetch.rate                        1.321496                       # Number of inst fetches per cycle ((Count/Cycle))
system.cpu.icache.demandHits::cpu.inst        5737034                       # number of demand (read+write) hits (Count)
system.cpu.icache.demandHits::total           5737034                       # number of demand (read+write) hits (Count)
system.cpu.icache.overallHits::cpu.inst       5737034                       # number of overall hits (Count)
system.cpu.icache.overallHits::total          5737034                       # number of overall hits (Count)
system.cpu.icache.demandMisses::cpu.inst        51518                       # number of demand (read+write) misses (Count)
system.cpu.icache.demandMisses::total           51518                       # number of demand (read+write) misses (Count)
system.cpu.icache.overallMisses::cpu.inst        51518                       # number of overall misses (Count)
system.cpu.icache.overallMisses::total          51518                       # number of overall misses (Count)
system.cpu.icache.demandMissLatency::cpu.inst   1342414499                       # number of demand (read+write) miss ticks (Tick)
system.cpu.icache.demandMissLatency::total   1342414499                       # number of demand (read+write) miss ticks (Tick)
system.cpu.icache.overallMissLatency::cpu.inst   1342414499                       # number of overall miss ticks (Tick)
system.cpu.icache.overallMissLatency::total   1342414499                       # number of overall miss ticks (Tick)
system.cpu.icache.demandAccesses::cpu.inst      5788552                       # number of demand (read+write) accesses (Count)
system.cpu.icache.demandAccesses::total       5788552                       # number of demand (read+write) accesses (Count)
system.cpu.icache.overallAccesses::cpu.inst      5788552                       # number of overall (read+write) accesses (Count)
system.cpu.icache.overallAccesses::total      5788552                       # number of overall (read+write) accesses (Count)
system.cpu.icache.demandMissRate::cpu.inst     0.008900                       # miss rate for demand accesses (Ratio)
system.cpu.icache.demandMissRate::total      0.008900                       # miss rate for demand accesses (Ratio)
system.cpu.icache.overallMissRate::cpu.inst     0.008900                       # miss rate for overall accesses (Ratio)
system.cpu.icache.overallMissRate::total     0.008900                       # miss rate for overall accesses (Ratio)
system.cpu.icache.demandAvgMissLatency::cpu.inst 26057.193583                       # average overall miss latency ((Cycle/Count))
system.cpu.icache.demandAvgMissLatency::total 26057.193583                       # average overall miss latency ((Cycle/Count))
system.cpu.icache.overallAvgMissLatency::cpu.inst 26057.193583                       # average overall miss latency ((Cycle/Count))
system.cpu.icache.overallAvgMissLatency::total 26057.193583                       # average overall miss latency ((Cycle/Count))
system.cpu.icache.blockedCycles::no_mshrs          973                       # number of cycles access was blocked (Cycle)
system.cpu.icache.blockedCycles::no_targets            0                       # number of cycles access was blocked (Cycle)
system.cpu.icache.blockedCauses::no_mshrs           24                       # number of times access was blocked (Count)
system.cpu.icache.blockedCauses::no_targets            0                       # number of times access was blocked (Count)
system.cpu.icache.avgBlocked::no_mshrs      40.541667                       # average number of cycles each access was blocked ((Cycle/Count))
system.cpu.icache.avgBlocked::no_targets          nan                       # average number of cycles each access was blocked ((Cycle/Count))
system.cpu.icache.writebacks::writebacks        49617                       # number of writebacks (Count)
system.cpu.icache.writebacks::total             49617                       # number of writebacks (Count)
system.cpu.icache.demandMshrHits::cpu.inst         1460                       # number of demand (read+write) MSHR hits (Count)
system.cpu.icache.demandMshrHits::total          1460                       # number of demand (read+write) MSHR hits (Count)
system.cpu.icache.overallMshrHits::cpu.inst         1460                       # number of overall MSHR hits (Count)
system.cpu.icache.overallMshrHits::total         1460                       # number of overall MSHR hits (Count)
system.cpu.icache.demandMshrMisses::cpu.inst        50058                       # number of demand (read+write) MSHR misses (Count)
system.cpu.icache.demandMshrMisses::total        50058                       # number of demand (read+write) MSHR misses (Count)
system.cpu.icache.overallMshrMisses::cpu.inst        50058                       # number of overall MSHR misses (Count)
system.cpu.icache.overallMshrMisses::total        50058                       # number of overall MSHR misses (Count)
system.cpu.icache.demandMshrMissLatency::cpu.inst   1261064000                       # number of demand (read+write) MSHR miss ticks (Tick)
system.cpu.icache.demandMshrMissLatency::total   1261064000                       # number of demand (read+write) MSHR miss ticks (Tick)
system.cpu.icache.overallMshrMissLatency::cpu.inst   1261064000                       # number of overall MSHR miss ticks (Tick)
system.cpu.icache.overallMshrMissLatency::total   1261064000                       # number of overall MSHR miss ticks (Tick)
system.cpu.icache.demandMshrMissRate::cpu.inst     0.008648                       # mshr miss ratio for demand accesses (Ratio)
system.cpu.icache.demandMshrMissRate::total     0.008648                       # mshr miss ratio for demand accesses (Ratio)
system.cpu.icache.overallMshrMissRate::cpu.inst     0.008648                       # mshr miss ratio for overall accesses (Ratio)
system.cpu.icache.overallMshrMissRate::total     0.008648                       # mshr miss ratio for overall accesses (Ratio)
system.cpu.icache.demandAvgMshrMissLatency::cpu.inst 25192.057214                       # average overall mshr miss latency ((Cycle/Count))
system.cpu.icache.demandAvgMshrMissLatency::total 25192.057214                       # average overall mshr miss latency ((Cycle/Count))
system.cpu.icache.overallAvgMshrMissLatency::cpu.inst 25192.057214                       # average overall mshr miss latency ((Cycle/Count))
system.cpu.icache.overallAvgMshrMissLatency::total 25192.057214                       # average overall mshr miss latency ((Cycle/Count))
system.cpu.icache.replacements                  49617                       # number of replacements (Count)
system.cpu.icache.ReadReq.hits::cpu.inst      5737034                       # number of ReadReq hits (Count)
system.cpu.icache.ReadReq.hits::total         5737034                       # number of ReadReq hits (Count)
system.cpu.icache.ReadReq.misses::cpu.inst        51518                       # number of ReadReq misses (Count)
system.cpu.icache.ReadReq.misses::total         51518                       # number of ReadReq misses (Count)
system.cpu.icache.ReadReq.missLatency::cpu.inst   1342414499                       # number of ReadReq miss ticks (Tick)
system.cpu.icache.ReadReq.missLatency::total   1342414499                       # number of ReadReq miss ticks (Tick)
system.cpu.icache.ReadReq.accesses::cpu.inst      5788552                       # number of ReadReq accesses(hits+misses) (Count)
system.cpu.icache.ReadReq.accesses::total      5788552                       # number of ReadReq accesses(hits+misses) (Count)
system.cpu.icache.ReadReq.missRate::cpu.inst     0.008900                       # miss rate for ReadReq accesses (Ratio)
system.cpu.icache.ReadReq.missRate::total     0.008900                       # miss rate for ReadReq accesses (Ratio)
system.cpu.icache.ReadReq.avgMissLatency::cpu.inst 26057.193583                       # average ReadReq miss latency ((Tick/Count))
system.cpu.icache.ReadReq.avgMissLatency::total 26057.193583                       # average ReadReq miss latency ((Tick/Count))
system.cpu.icache.ReadReq.mshrHits::cpu.inst         1460                       # number of ReadReq MSHR hits (Count)
system.cpu.icache.ReadReq.mshrHits::total         1460                       # number of ReadReq MSHR hits (Count)
system.cpu.icache.ReadReq.mshrMisses::cpu.inst        50058                       # number of ReadReq MSHR misses (Count)
system.cpu.icache.ReadReq.mshrMisses::total        50058                       # number of ReadReq MSHR misses (Count)
system.cpu.icache.ReadReq.mshrMissLatency::cpu.inst   1261064000                       # number of ReadReq MSHR miss ticks (Tick)
system.cpu.icache.ReadReq.mshrMissLatency::total   1261064000                       # number of ReadReq MSHR miss ticks (Tick)
system.cpu.icache.ReadReq.mshrMissRate::cpu.inst     0.008648                       # mshr miss rate for ReadReq accesses (Ratio)
system.cpu.icache.ReadReq.mshrMissRate::total     0.008648                       # mshr miss rate for ReadReq accesses (Ratio)
system.cpu.icache.ReadReq.avgMshrMissLatency::cpu.inst 25192.057214                       # average ReadReq mshr miss latency ((Tick/Count))
system.cpu.icache.ReadReq.avgMshrMissLatency::total 25192.057214                       # average ReadReq mshr miss latency ((Tick/Count))
system.cpu.icache.power_state.pwrStateResidencyTicks::UNDEFINED  18098871500                       # Cumulative time (in ticks) in various power states (Tick)
system.cpu.icache.tags.tagsInUse           373.182715                       # Average ticks per tags in use ((Tick/Count))
system.cpu.icache.tags.totalRefs              5787090                       # Total number of references to valid blocks. (Count)
system.cpu.icache.tags.sampledRefs              50056                       # Sample count of references to valid blocks. (Count)
system.cpu.icache.tags.avgRefs             115.612314                       # Average number of references to valid blocks. ((Count/Count))
system.cpu.icache.tags.warmupTick               77000                       # The tick when the warmup percentage was hit. (Tick)
system.cpu.icache.tags.occupancies::cpu.inst   373.182715                       # Average occupied blocks per tick, per requestor ((Count/Tick))
system.cpu.icache.tags.avgOccs::cpu.inst     0.728872                       # Average percentage of cache occupancy ((Ratio/Tick))
system.cpu.icache.tags.avgOccs::total        0.728872                       # Average percentage of cache occupancy ((Ratio/Tick))
system.cpu.icache.tags.occupanciesTaskId::1024          439                       # Occupied blocks per task id (Count)
system.cpu.icache.tags.ageTaskId_1024::0          100                       # Occupied blocks per task id, per block age (Count)
system.cpu.icache.tags.ageTaskId_1024::1           28                       # Occupied blocks per task id, per block age (Count)
system.cpu.icache.tags.ageTaskId_1024::3           70                       # Occupied blocks per task id, per block age (Count)
system.cpu.icache.tags.ageTaskId_1024::4          241                       # Occupied blocks per task id, per block age (Count)
system.cpu.icache.tags.ratioOccsTaskId::1024     0.857422                       # Ratio of occupied blocks and all blocks, per task id (Ratio)
system.cpu.icache.tags.tagAccesses           11627160                       # Number of tag accesses (Count)
system.cpu.icache.tags.dataAccesses          11627160                       # Number of data accesses (Count)
system.cpu.icache.tags.power_state.pwrStateResidencyTicks::UNDEFINED  18098871500                       # Cumulative time (in ticks) in various power states (Tick)
system.cpu.iew.idleCycles                           0                       # Number of cycles IEW is idle (Cycle)
system.cpu.iew.squashCycles                    185662                       # Number of cycles IEW is squashing (Cycle)
system.cpu.iew.blockCycles                    4031220                       # Number of cycles IEW is blocking (Cycle)
system.cpu.iew.unblockCycles                  2179443                       # Number of cycles IEW is unblocking (Cycle)
system.cpu.iew.dispatchedInsts               43824663                       # Number of instructions dispatched to IQ (Count)
system.cpu.iew.dispSquashedInsts               117525                       # Number of squashed instructions skipped by dispatch (Count)
system.cpu.iew.dispLoadInsts                  7945141                       # Number of dispatched load instructions (Count)
system.cpu.iew.dispStoreInsts                 4814966                       # Number of dispatched store instructions (Count)
system.cpu.iew.dispNonSpecInsts                 33350                       # Number of dispatched non-speculative instructions (Count)
system.cpu.iew.iqFullEvents                    167846                       # Number of times the IQ has become full, causing a stall (Count)
system.cpu.iew.lsqFullEvents                  1932510                       # Number of times the LSQ has become full, causing a stall (Count)
system.cpu.iew.memOrderViolationEvents            799                       # Number of memory order violations (Count)
system.cpu.iew.predictedTakenIncorrect          81136                       # Number of branches that were predicted taken incorrectly (Count)
system.cpu.iew.predictedNotTakenIncorrect       122241                       # Number of branches that were predicted not taken incorrectly (Count)
system.cpu.iew.branchMispredicts               203377                       # Number of branch mispredicts detected at execute (Count)
system.cpu.iew.instsToCommit                 42057288                       # Cumulative count of insts sent to commit (Count)
system.cpu.iew.writebackCount                41988566                       # Cumulative count of insts written-back (Count)
system.cpu.iew.producerInst                  20329649                       # Number of instructions producing a value (Count)
[...]
system.mem_ctrls.dram.bwRead::total        1818452383                       # Total read bandwidth from this memory ((Byte/Second))
system.mem_ctrls.dram.bwInstRead::cpu.inst    177011699                       # Instruction read bandwidth from this memory ((Byte/Second))
system.mem_ctrls.dram.bwInstRead::total     177011699                       # Instruction read bandwidth from this memory ((Byte/Second))
system.mem_ctrls.dram.bwWrite::writebacks    545024036                       # Write bandwidth from this memory ((Byte/Second))
system.mem_ctrls.dram.bwWrite::total        545024036                       # Write bandwidth from this memory ((Byte/Second))
system.mem_ctrls.dram.bwTotal::writebacks    545024036                       # Total bandwidth to/from this memory ((Byte/Second))
system.mem_ctrls.dram.bwTotal::cpu.inst     177011699                       # Total bandwidth to/from this memory ((Byte/Second))
system.mem_ctrls.dram.bwTotal::cpu.data    1641440683                       # Total bandwidth to/from this memory ((Byte/Second))
system.mem_ctrls.dram.bwTotal::total       2363476419                       # Total bandwidth to/from this memory ((Byte/Second))
system.mem_ctrls.dram.readBursts               326404                       # Number of DRAM read bursts (Count)
system.mem_ctrls.dram.writeBursts               29487                       # Number of DRAM write bursts (Count)
system.mem_ctrls.dram.perBankRdBursts::0        20655                       # Per bank write bursts (Count)
system.mem_ctrls.dram.perBankRdBursts::1         8376                       # Per bank write bursts (Count)
system.mem_ctrls.dram.perBankRdBursts::2        36750                       # Per bank write bursts (Count)
system.mem_ctrls.dram.perBankRdBursts::3        94595                       # Per bank write bursts (Count)
system.mem_ctrls.dram.perBankRdBursts::4        12594                       # Per bank write bursts (Count)
system.mem_ctrls.dram.perBankRdBursts::5        35616                       # Per bank write bursts (Count)
system.mem_ctrls.dram.perBankRdBursts::6        27087                       # Per bank write bursts (Count)
system.mem_ctrls.dram.perBankRdBursts::7         3439                       # Per bank write bursts (Count)
system.mem_ctrls.dram.perBankRdBursts::8         2845                       # Per bank write bursts (Count)
system.mem_ctrls.dram.perBankRdBursts::9         2859                       # Per bank write bursts (Count)
system.mem_ctrls.dram.perBankRdBursts::10        10609                       # Per bank write bursts (Count)
system.mem_ctrls.dram.perBankRdBursts::11        17025                       # Per bank write bursts (Count)
system.mem_ctrls.dram.perBankRdBursts::12        17288                       # Per bank write bursts (Count)
system.mem_ctrls.dram.perBankRdBursts::13        16952                       # Per bank write bursts (Count)
system.mem_ctrls.dram.perBankRdBursts::14         9832                       # Per bank write bursts (Count)
system.mem_ctrls.dram.perBankRdBursts::15         9882                       # Per bank write bursts (Count)
system.mem_ctrls.dram.perBankWrBursts::0         2439                       # Per bank write bursts (Count)
system.mem_ctrls.dram.perBankWrBursts::1         2464                       # Per bank write bursts (Count)
system.mem_ctrls.dram.perBankWrBursts::2          461                       # Per bank write bursts (Count)
system.mem_ctrls.dram.perBankWrBursts::3          721                       # Per bank write bursts (Count)
system.mem_ctrls.dram.perBankWrBursts::4         9790                       # Per bank write bursts (Count)
system.mem_ctrls.dram.perBankWrBursts::5          685                       # Per bank write bursts (Count)
system.mem_ctrls.dram.perBankWrBursts::6         1846                       # Per bank write bursts (Count)
system.mem_ctrls.dram.perBankWrBursts::7         1200                       # Per bank write bursts (Count)
system.mem_ctrls.dram.perBankWrBursts::8          546                       # Per bank write bursts (Count)
system.mem_ctrls.dram.perBankWrBursts::9          529                       # Per bank write bursts (Count)
system.mem_ctrls.dram.perBankWrBursts::10         1535                       # Per bank write bursts (Count)
system.mem_ctrls.dram.perBankWrBursts::11          538                       # Per bank write bursts (Count)
system.mem_ctrls.dram.perBankWrBursts::12         1658                       # Per bank write bursts (Count)
system.mem_ctrls.dram.perBankWrBursts::13         1023                       # Per bank write bursts (Count)
system.mem_ctrls.dram.perBankWrBursts::14         1586                       # Per bank write bursts (Count)
system.mem_ctrls.dram.perBankWrBursts::15         2466                       # Per bank write bursts (Count)
system.mem_ctrls.dram.totQLat              4697721500                       # Total ticks spent queuing (Tick)
system.mem_ctrls.dram.totBusLat            1632020000                       # Total ticks spent in databus transfers (Tick)
system.mem_ctrls.dram.totMemAccLat        10817796500                       # Total ticks spent from burst creation until serviced by the DRAM (Tick)
system.mem_ctrls.dram.avgQLat                14392.35                       # Average queueing delay per DRAM burst ((Tick/Count))
system.mem_ctrls.dram.avgBusLat               5000.00                       # Average bus latency per DRAM burst ((Tick/Count))
system.mem_ctrls.dram.avgMemAccLat           33142.35                       # Average memory access latency per DRAM burst ((Tick/Count))
system.mem_ctrls.dram.readRowHits              225600                       # Number of row buffer hits during reads (Count)
system.mem_ctrls.dram.writeRowHits              25023                       # Number of row buffer hits during writes (Count)
system.mem_ctrls.dram.readRowHitRate            69.12                       # Row buffer hit rate for reads (Ratio)
system.mem_ctrls.dram.writeRowHitRate           84.86                       # Row buffer hit rate for writes (Ratio)
system.mem_ctrls.dram.bytesPerActivate::samples       105253                       # Bytes accessed per row activation (Byte)
system.mem_ctrls.dram.bytesPerActivate::mean   216.377072                       # Bytes accessed per row activation (Byte)
system.mem_ctrls.dram.bytesPerActivate::gmean   134.173096                       # Bytes accessed per row activation (Byte)
system.mem_ctrls.dram.bytesPerActivate::stdev   274.066849                       # Bytes accessed per row activation (Byte)
system.mem_ctrls.dram.bytesPerActivate::0-127        46444     44.13%     44.13% # Bytes accessed per row activation (Byte)
system.mem_ctrls.dram.bytesPerActivate::128-255        33907     32.21%     76.34% # Bytes accessed per row activation (Byte)
system.mem_ctrls.dram.bytesPerActivate::256-383        11185     10.63%     86.97% # Bytes accessed per row activation (Byte)
system.mem_ctrls.dram.bytesPerActivate::384-511         1421      1.35%     88.32% # Bytes accessed per row activation (Byte)
system.mem_ctrls.dram.bytesPerActivate::512-639         1255      1.19%     89.51% # Bytes accessed per row activation (Byte)
system.mem_ctrls.dram.bytesPerActivate::640-767          565      0.54%     90.05% # Bytes accessed per row activation (Byte)
system.mem_ctrls.dram.bytesPerActivate::768-895         1264      1.20%     91.25% # Bytes accessed per row activation (Byte)
system.mem_ctrls.dram.bytesPerActivate::896-1023         1038      0.99%     92.23% # Bytes accessed per row activation (Byte)
system.mem_ctrls.dram.bytesPerActivate::1024-1151         8174      7.77%    100.00% # Bytes accessed per row activation (Byte)
system.mem_ctrls.dram.bytesPerActivate::total       105253                       # Bytes accessed per row activation (Byte)
system.mem_ctrls.dram.bytesRead              20889856                       # Total bytes read (Byte)
system.mem_ctrls.dram.bytesWritten            1887168                       # Total bytes written (Byte)
system.mem_ctrls.dram.avgRdBW             1154.207653                       # Average DRAM read bandwidth in MiBytes/s ((Byte/Second))
system.mem_ctrls.dram.avgWrBW              104.269926                       # Average DRAM write bandwidth in MiBytes/s ((Byte/Second))
system.mem_ctrls.dram.peakBW                 12800.00                       # Theoretical peak bandwidth in MiByte/s ((Byte/Second))
system.mem_ctrls.dram.busUtil                    9.83                       # Data bus utilization in percentage (Ratio)
system.mem_ctrls.dram.busUtilRead                9.02                       # Data bus utilization in percentage for reads (Ratio)
system.mem_ctrls.dram.busUtilWrite               0.81                       # Data bus utilization in percentage for writes (Ratio)
system.mem_ctrls.dram.pageHitRate               70.42                       # Row buffer hit rate, read and write combined (Ratio)
system.mem_ctrls.dram.power_state.pwrStateResidencyTicks::UNDEFINED  18098871500                       # Cumulative time (in ticks) in various power states (Tick)
system.mem_ctrls.dram.rank0.actEnergy       667211580                       # Energy for activate commands per rank (pJ) (Joule)
system.mem_ctrls.dram.rank0.preEnergy       354601005                       # Energy for precharge commands per rank (pJ) (Joule)
system.mem_ctrls.dram.rank0.readEnergy     1707259680                       # Energy for read commands per rank (pJ) (Joule)
system.mem_ctrls.dram.rank0.writeEnergy     102343320                       # Energy for write commands per rank (pJ) (Joule)
system.mem_ctrls.dram.rank0.refreshEnergy 1428423360.000000                       # Energy for refresh commands per rank (pJ) (Joule)
system.mem_ctrls.dram.rank0.actBackEnergy   8128962090                       # Energy for active background per rank (pJ) (Joule)
system.mem_ctrls.dram.rank0.preBackEnergy    104525280                       # Energy for precharge background per rank (pJ) (Joule)
system.mem_ctrls.dram.rank0.actPowerDownEnergy            0                       # Energy for active power-down per rank (pJ) (Joule)
system.mem_ctrls.dram.rank0.prePowerDownEnergy            0                       # Energy for precharge power-down per rank (pJ) (Joule)
system.mem_ctrls.dram.rank0.selfRefreshEnergy            0                       # Energy for self refresh per rank (pJ) (Joule)
system.mem_ctrls.dram.rank0.totalEnergy   12493326315                       # Total energy per rank (pJ) (Joule)
system.mem_ctrls.dram.rank0.averagePower   690.282061                       # Core power per rank (mW) (Watt)
system.mem_ctrls.dram.rank0.totalIdleTime            0                       # Total Idle time Per DRAM Rank (Tick)
system.mem_ctrls.dram.rank0.pwrStateTime::IDLE    202803250                       # Time in different power states (Tick)
system.mem_ctrls.dram.rank0.pwrStateTime::REF    604240000                       # Time in different power states (Tick)
system.mem_ctrls.dram.rank0.pwrStateTime::SREF            0                       # Time in different power states (Tick)
system.mem_ctrls.dram.rank0.pwrStateTime::PRE_PDN            0                       # Time in different power states (Tick)
system.mem_ctrls.dram.rank0.pwrStateTime::ACT  17291828250                       # Time in different power states (Tick)
system.mem_ctrls.dram.rank0.pwrStateTime::ACT_PDN            0                       # Time in different power states (Tick)
system.mem_ctrls.dram.rank1.actEnergy        84401940                       # Energy for activate commands per rank (pJ) (Joule)
system.mem_ctrls.dram.rank1.preEnergy        44834130                       # Energy for precharge commands per rank (pJ) (Joule)
system.mem_ctrls.dram.rank1.readEnergy      623264880                       # Energy for read commands per rank (pJ) (Joule)
system.mem_ctrls.dram.rank1.writeEnergy      51578820                       # Energy for write commands per rank (pJ) (Joule)
system.mem_ctrls.dram.rank1.refreshEnergy 1428423360.000000                       # Energy for refresh commands per rank (pJ) (Joule)
system.mem_ctrls.dram.rank1.actBackEnergy   6925021770                       # Energy for active background per rank (pJ) (Joule)
system.mem_ctrls.dram.rank1.preBackEnergy   1118369760                       # Energy for precharge background per rank (pJ) (Joule)
system.mem_ctrls.dram.rank1.actPowerDownEnergy            0                       # Energy for active power-down per rank (pJ) (Joule)
system.mem_ctrls.dram.rank1.prePowerDownEnergy            0                       # Energy for precharge power-down per rank (pJ) (Joule)
system.mem_ctrls.dram.rank1.selfRefreshEnergy            0                       # Energy for self refresh per rank (pJ) (Joule)
system.mem_ctrls.dram.rank1.totalEnergy   10275894660                       # Total energy per rank (pJ) (Joule)
system.mem_ctrls.dram.rank1.averagePower   567.764386                       # Core power per rank (mW) (Watt)
system.mem_ctrls.dram.rank1.totalIdleTime            0                       # Total Idle time Per DRAM Rank (Tick)
system.mem_ctrls.dram.rank1.pwrStateTime::IDLE   2825426000                       # Time in different power states (Tick)
system.mem_ctrls.dram.rank1.pwrStateTime::REF    604240000                       # Time in different power states (Tick)
system.mem_ctrls.dram.rank1.pwrStateTime::SREF            0                       # Time in different power states (Tick)
system.mem_ctrls.dram.rank1.pwrStateTime::PRE_PDN            0                       # Time in different power states (Tick)
system.mem_ctrls.dram.rank1.pwrStateTime::ACT  14669205500                       # Time in different power states (Tick)
system.mem_ctrls.dram.rank1.pwrStateTime::ACT_PDN            0                       # Time in different power states (Tick)
system.mem_ctrls.power_state.pwrStateResidencyTicks::UNDEFINED  18098871500                       # Cumulative time (in ticks) in various power states (Tick)
system.membus.transDist::ReadResp              424556                       # Transaction distribution (Count)
system.membus.transDist::WritebackDirty        154130                       # Transaction distribution (Count)
system.membus.transDist::WritebackClean         49617                       # Transaction distribution (Count)
system.membus.transDist::CleanEvict            313290                       # Transaction distribution (Count)
system.membus.transDist::ReadExReq              89691                       # Transaction distribution (Count)
system.membus.transDist::ReadExResp             89691                       # Transaction distribution (Count)
system.membus.transDist::ReadCleanReq           50058                       # Transaction distribution (Count)
system.membus.transDist::ReadSharedReq         374500                       # Transaction distribution (Count)
system.membus.transDist::InvalidateReq           3261                       # Transaction distribution (Count)
system.membus.pktCount_system.cpu.icache.mem_side_port::system.mem_ctrls.port       149731                       # Packet count per connected requestor and responder (Count)
system.membus.pktCount_system.cpu.dcache.mem_side_port::system.mem_ctrls.port      1399063                       # Packet count per connected requestor and responder (Count)
system.membus.pktCount::total                 1548794                       # Packet count per connected requestor and responder (Count)
system.membus.pktSize_system.cpu.icache.mem_side_port::system.mem_ctrls.port      6379072                       # Cumulative packet size per connected requestor and responder (Byte)
system.membus.pktSize_system.cpu.dcache.mem_side_port::system.mem_ctrls.port     39572544                       # Cumulative packet size per connected requestor and responder (Byte)
system.membus.pktSize::total                 45951616                       # Cumulative packet size per connected requestor and responder (Byte)
system.membus.snoops                                0                       # Total snoops (Count)
system.membus.snoopTraffic                          0                       # Total snoop traffic (Byte)
system.membus.snoopFanout::samples             517510                       # Request fanout histogram (Count)
system.membus.snoopFanout::mean                     0                       # Request fanout histogram (Count)
system.membus.snoopFanout::stdev                    0                       # Request fanout histogram (Count)
system.membus.snoopFanout::underflows               0      0.00%      0.00% # Request fanout histogram (Count)
system.membus.snoopFanout::0                   517510    100.00%    100.00% # Request fanout histogram (Count)
system.membus.snoopFanout::1                        0      0.00%    100.00% # Request fanout histogram (Count)
system.membus.snoopFanout::2                        0      0.00%    100.00% # Request fanout histogram (Count)
system.membus.snoopFanout::3                        0      0.00%    100.00% # Request fanout histogram (Count)
system.membus.snoopFanout::4                        0      0.00%    100.00% # Request fanout histogram (Count)
system.membus.snoopFanout::overflows                0      0.00%    100.00% # Request fanout histogram (Count)
system.membus.snoopFanout::min_value                0                       # Request fanout histogram (Count)
system.membus.snoopFanout::max_value                0                       # Request fanout histogram (Count)
system.membus.snoopFanout::total               517510                       # Request fanout histogram (Count)
system.membus.power_state.pwrStateResidencyTicks::UNDEFINED  18098871500                       # Cumulative time (in ticks) in various power states (Tick)
system.membus.reqLayer0.occupancy          1928311000                       # Layer occupancy (ticks) (Tick)
system.membus.reqLayer0.utilization               0.1                       # Layer utilization (Ratio)
system.membus.respLayer1.occupancy          251860006                       # Layer occupancy (ticks) (Tick)
system.membus.respLayer1.utilization              0.0                       # Layer utilization (Ratio)
system.membus.respLayer2.occupancy         2425124250                       # Layer occupancy (ticks) (Tick)
system.membus.respLayer2.utilization              0.1                       # Layer utilization (Ratio)
system.membus.snoop_filter.totRequests        1034547                       # Total number of requests made to the snoop filter. (Count)
system.membus.snoop_filter.hitSingleRequests       517037                       # Number of requests hitting in the snoop filter with a single holder of the requested data. (Count)
system.membus.snoop_filter.hitMultiRequests            0                       # Number of requests hitting in the snoop filter with multiple (>1) holders of the requested data. (Count)
system.membus.snoop_filter.totSnoops                0                       # Total number of snoops made to the snoop filter. (Count)
system.membus.snoop_filter.hitSingleSnoops            0                       # Number of snoops hitting in the snoop filter with a single holder of the requested data. (Count)
system.membus.snoop_filter.hitMultiSnoops            0                       # Number of snoops hitting in the snoop filter with multiple (>1) holders of the requested data. (Count)
system.voltage_domain.voltage                       1                       # Voltage in Volts (Volt)
system.workload.inst.arm                            0                       # number of arm instructions executed (Count)
system.workload.inst.quiesce                        0                       # number of quiesce instructions executed (Count)

---------- End Simulation Statistics   ----------
