
---------- Begin Simulation Statistics ----------
simSeconds                                   0.015234                       # Number of seconds simulated (Second)
simTicks                                  15233744000                       # Number of ticks simulated (Tick)
finalTick                                 15233744000                       # Number of ticks from beginning of simulation (restored from checkpoints and never reset) (Tick)
simFreq                                  1000000000000                       # The number of ticks per simulated second ((Tick/Second))
hostSeconds                                     79.65                       # Real time elapsed on the host (Second)
hostTickRate                                191263753                       # The number of ticks simulated per host second (ticks/s) ((Tick/Second))
hostMemory                                     665908                       # Number of bytes of host memory used (Byte)
simInsts                                     34932178                       # Number of instructions simulated (Count)
simOps                                       69036779                       # Number of ops (including micro ops) simulated (Count)
hostInstRate                                   438583                       # Simulator instruction rate (inst/s) ((Count/Second))
hostOpRate                                     866775                       # Simulator op (including micro ops) rate (op/s) ((Count/Second))
system.clk_domain.clock                          1000                       # Clock period in ticks (Tick)
system.cpu.numCycles                         30467489                       # Number of cpu cycles simulated (Cycle)
system.cpu.numWorkItemsStarted                      0                       # Number of work items this cpu started (Count)
system.cpu.numWorkItemsCompleted                    0                       # Number of work items this cpu completed (Count)
system.cpu.instsAdded                        73547093                       # Number of instructions added to the IQ (excludes non-spec) (Count)
system.cpu.nonSpecInstsAdded                       51                       # Number of non-speculative instructions added to the IQ (Count)
system.cpu.instsIssued                       72132059                       # Number of instructions issued (Count)
system.cpu.squashedInstsIssued                 133293                       # Number of squashed instructions issued (Count)
system.cpu.squashedInstsExamined              4510359                       # Number of squashed instructions iterated over during squash; mainly for profiling (Count)
system.cpu.squashedOperandsExamined           6351487                       # Number of squashed operands that are examined and possibly removed from graph (Count)
system.cpu.squashedNonSpecRemoved                  33                       # Number of squashed non-spec instructions that were removed (Count)
system.cpu.numIssuedDist::samples            30109405                       # Number of insts issued each cycle (Count)
system.cpu.numIssuedDist::mean               2.395665                       # Number of insts issued each cycle (Count)
system.cpu.numIssuedDist::stdev              2.465994                       # Number of insts issued each cycle (Count)
system.cpu.numIssuedDist::underflows                0      0.00%      0.00% # Number of insts issued each cycle (Count)
system.cpu.numIssuedDist::0                  11421575     37.93%     37.93% # Number of insts issued each cycle (Count)
system.cpu.numIssuedDist::1                   2761157      9.17%     47.10% # Number of insts issued each cycle (Count)
system.cpu.numIssuedDist::2                   2977176      9.89%     56.99% # Number of insts issued each cycle (Count)
system.cpu.numIssuedDist::3                   3236814     10.75%     67.74% # Number of insts issued each cycle (Count)
system.cpu.numIssuedDist::4                   2737941      9.09%     76.84% # Number of insts issued each cycle (Count)
system.cpu.numIssuedDist::5                   2006734      6.66%     83.50% # Number of insts issued each cycle (Count)
system.cpu.numIssuedDist::6                   2762592      9.18%     92.68% # Number of insts issued each cycle (Count)
system.cpu.numIssuedDist::7                   1498206      4.98%     97.65% # Number of insts issued each cycle (Count)
system.cpu.numIssuedDist::8                    707210      2.35%    100.00% # Number of insts issued each cycle (Count)
system.cpu.numIssuedDist::overflows                 0      0.00%    100.00% # Number of insts issued each cycle (Count)
system.cpu.numIssuedDist::min_value                 0                       # Number of insts issued each cycle (Count)
system.cpu.numIssuedDist::max_value                 8                       # Number of insts issued each cycle (Count)
system.cpu.numIssuedDist::total              30109405                       # Number of insts issued each cycle (Count)
system.cpu.statFuBusy::No_OpClass                   0      0.00%      0.00% # attempts to use FU when none available (Count)
system.cpu.statFuBusy::IntAlu                 1907768     88.28%     88.28% # attempts to use FU when none available (Count)
system.cpu.statFuBusy::IntMult                      0      0.00%     88.28% # attempts to use FU when none available (Count)
system.cpu.statFuBusy::IntDiv                       0      0.00%     88.28% # attempts to use FU when none available (Count)
system.cpu.statFuBusy::FloatAdd                     0      0.00%     88.28% # attempts to use FU when none available (Count)
system.cpu.statFuBusy::FloatCmp                     0      0.00%     88.28% # attempts to use FU when none available (Count)
system.cpu.statFuBusy::FloatCvt                     0      0.00%     88.28% # attempts to use FU when none available (Count)
system.cpu.statFuBusy::FloatMult                    0      0.00%     88.28% # attempts to use FU when none available (Count)
system.cpu.statFuBusy::FloatMultAcc                 0      0.00%     88.28% # attempts to use FU when none available (Count)
system.cpu.statFuBusy::FloatDiv                     0      0.00%     88.28% # attempts to use FU when none available (Count)
system.cpu.statFuBusy::FloatMisc                    0      0.00%     88.28% # attempts to use FU when none available (Count)
system.cpu.statFuBusy::FloatSqrt                    0      0.00%     88.28% # attempts to use FU when none available (Count)
system.cpu.statFuBusy::SimdAdd                      0      0.00%     88.28% # attempts to use FU when none available (Count)
system.cpu.statFuBusy::SimdAddAcc                   0      0.00%     88.28% # attempts to use FU when none available (Count)
system.cpu.statFuBusy::SimdAlu                  28082      1.30%     89.58% # attempts to use FU when none available (Count)
system.cpu.statFuBusy::SimdCmp                      0      0.00%     89.58% # attempts to use FU when none available (Count)
system.cpu.statFuBusy::SimdCvt                    121      0.01%     89.59% # attempts to use FU when none available (Count)
system.cpu.statFuBusy::SimdMisc                  8549      0.40%     89.98% # attempts to use FU when none available (Count)
system.cpu.statFuBusy::SimdMult                     0      0.00%     89.98% # attempts to use FU when none available (Count)
system.cpu.statFuBusy::SimdMultAcc                  0      0.00%     89.98% # attempts to use FU when none available (Count)
system.cpu.statFuBusy::SimdShift                    0      0.00%     89.98% # attempts to use FU when none available (Count)
system.cpu.statFuBusy::SimdShiftAcc                 0      0.00%     89.98% # attempts to use FU when none available (Count)
system.cpu.statFuBusy::SimdDiv                      0      0.00%     89.98% # attempts to use FU when none available (Count)
system.cpu.statFuBusy::SimdSqrt                     0      0.00%     89.98% # attempts to use FU when none available (Count)
system.cpu.statFuBusy::SimdFloatAdd             10535      0.49%     90.47% # attempts to use FU when none available (Count)
system.cpu.statFuBusy::SimdFloatAlu                 0      0.00%     90.47% # attempts to use FU when none available (Count)
system.cpu.statFuBusy::SimdFloatCmp                 0      0.00%     90.47% # attempts to use FU when none available (Count)
system.cpu.statFuBusy::SimdFloatCvt                 0      0.00%     90.47% # attempts to use FU when none available (Count)
system.cpu.statFuBusy::SimdFloatDiv                 0      0.00%     90.47% # attempts to use FU when none available (Count)
system.cpu.statFuBusy::SimdFloatMisc                0      0.00%     90.47% # attempts to use FU when none available (Count)
system.cpu.statFuBusy::SimdFloatMult            38467      1.78%     92.25% # attempts to use FU when none available (Count)
system.cpu.statFuBusy::SimdFloatMultAcc             0      0.00%     92.25% # attempts to use FU when none available (Count)
system.cpu.statFuBusy::SimdFloatSqrt                0      0.00%     92.25% # attempts to use FU when none available (Count)
system.cpu.statFuBusy::SimdReduceAdd                0      0.00%     92.25% # attempts to use FU when none available (Count)
system.cpu.statFuBusy::SimdReduceAlu                0      0.00%     92.25% # attempts to use FU when none available (Count)
system.cpu.statFuBusy::SimdReduceCmp                0      0.00%     92.25% # attempts to use FU when none available (Count)
system.cpu.statFuBusy::SimdFloatReduceAdd            0      0.00%     92.25% # attempts to use FU when none available (Count)
system.cpu.statFuBusy::SimdFloatReduceCmp            0      0.00%     92.25% # attempts to use FU when none available (Count)
system.cpu.statFuBusy::SimdAes                      0      0.00%     92.25% # attempts to use FU when none available (Count)
system.cpu.statFuBusy::SimdAesMix                   0      0.00%     92.25% # attempts to use FU when none available (Count)
system.cpu.statFuBusy::SimdSha1Hash                 0      0.00%     92.25% # attempts to use FU when none available (Count)
system.cpu.statFuBusy::SimdSha1Hash2                0      0.00%     92.25% # attempts to use FU when none available (Count)
system.cpu.statFuBusy::SimdSha256Hash               0      0.00%     92.25% # attempts to use FU when none available (Count)
system.cpu.statFuBusy::SimdSha256Hash2              0      0.00%     92.25% # attempts to use FU when none available (Count)
system.cpu.statFuBusy::SimdShaSigma2                0      0.00%     92.25% # attempts to use FU when none available (Count)
system.cpu.statFuBusy::SimdShaSigma3                0      0.00%     92.25% # attempts to use FU when none available (Count)
system.cpu.statFuBusy::SimdPredAlu                  0      0.00%     92.25% # attempts to use FU when none available (Count)
system.cpu.statFuBusy::MemRead                  87557      4.05%     96.30% # attempts to use FU when none available (Count)
system.cpu.statFuBusy::MemWrite                 23058      1.07%     97.37% # attempts to use FU when none available (Count)
system.cpu.statFuBusy::FloatMemRead             39988      1.85%     99.22% # attempts to use FU when none available (Count)
system.cpu.statFuBusy::FloatMemWrite            16813      0.78%    100.00% # attempts to use FU when none available (Count)
system.cpu.statFuBusy::IprAccess                    0      0.00%    100.00% # attempts to use FU when none available (Count)
system.cpu.statFuBusy::InstPrefetch                 0      0.00%    100.00% # attempts to use FU when none available (Count)
system.cpu.statIssuedInstType_0::No_OpClass       867174      1.20%      1.20% # Number of instructions issued per FU type, per thread (Count)
system.cpu.statIssuedInstType_0::IntAlu      55623851     77.11%     78.32% # Number of instructions issued per FU type, per thread (Count)
system.cpu.statIssuedInstType_0::IntMult        89549      0.12%     78.44% # Number of instructions issued per FU type, per thread (Count)
system.cpu.statIssuedInstType_0::IntDiv        910414      1.26%     79.70% # Number of instructions issued per FU type, per thread (Count)
system.cpu.statIssuedInstType_0::FloatAdd       366732      0.51%     80.21% # Number of instructions issued per FU type, per thread (Count)
system.cpu.statIssuedInstType_0::FloatCmp            0      0.00%     80.21% # Number of instructions issued per FU type, per thread (Count)
system.cpu.statIssuedInstType_0::FloatCvt            0      0.00%     80.21% # Number of instructions issued per FU type, per thread (Count)
system.cpu.statIssuedInstType_0::FloatMult            0      0.00%     80.21% # Number of instructions issued per FU type, per thread (Count)
system.cpu.statIssuedInstType_0::FloatMultAcc            0      0.00%     80.21% # Number of instructions issued per FU type, per thread (Count)
system.cpu.statIssuedInstType_0::FloatDiv            0      0.00%     80.21% # Number of instructions issued per FU type, per thread (Count)
system.cpu.statIssuedInstType_0::FloatMisc            0      0.00%     80.21% # Number of instructions issued per FU type, per thread (Count)
system.cpu.statIssuedInstType_0::FloatSqrt            0      0.00%     80.21% # Number of instructions issued per FU type, per thread (Count)
system.cpu.statIssuedInstType_0::SimdAdd            0      0.00%     80.21% # Number of instructions issued per FU type, per thread (Count)
system.cpu.statIssuedInstType_0::SimdAddAcc            0      0.00%     80.21% # Number of instructions issued per FU type, per thread (Count)
system.cpu.statIssuedInstType_0::SimdAlu       279355      0.39%     80.60% # Number of instructions issued per FU type, per thread (Count)
system.cpu.statIssuedInstType_0::SimdCmp          338      0.00%     80.60% # Number of instructions issued per FU type, per thread (Count)
system.cpu.statIssuedInstType_0::SimdCvt       164766      0.23%     80.83% # Number of instructions issued per FU type, per thread (Count)
system.cpu.statIssuedInstType_0::SimdMisc       242691      0.34%     81.16% # Number of instructions issued per FU type, per thread (Count)
system.cpu.statIssuedInstType_0::SimdMult            0      0.00%     81.16% # Number of instructions issued per FU type, per thread (Count)
system.cpu.statIssuedInstType_0::SimdMultAcc            0      0.00%     81.16% # Number of instructions issued per FU type, per thread (Count)
system.cpu.statIssuedInstType_0::SimdShift            0      0.00%     81.16% # Number of instructions issued per FU type, per thread (Count)
system.cpu.statIssuedInstType_0::SimdShiftAcc            0      0.00%     81.16% # Number of instructions issued per FU type, per thread (Count)
system.cpu.statIssuedInstType_0::SimdDiv            0      0.00%     81.16% # Number of instructions issued per FU type, per thread (Count)
system.cpu.statIssuedInstType_0::SimdSqrt            0      0.00%     81.16% # Number of instructions issued per FU type, per thread (Count)
system.cpu.statIssuedInstType_0::SimdFloatAdd       278528      0.39%     81.55% # Number of instructions issued per FU type, per thread (Count)
system.cpu.statIssuedInstType_0::SimdFloatAlu            0      0.00%     81.55% # Number of instructions issued per FU type, per thread (Count)
system.cpu.statIssuedInstType_0::SimdFloatCmp            0      0.00%     81.55% # Number of instructions issued per FU type, per thread (Count)
system.cpu.statIssuedInstType_0::SimdFloatCvt        16384      0.02%     81.57% # Number of instructions issued per FU type, per thread (Count)
system.cpu.statIssuedInstType_0::SimdFloatDiv            0      0.00%     81.57% # Number of instructions issued per FU type, per thread (Count)
system.cpu.statIssuedInstType_0::SimdFloatMisc            0      0.00%     81.57% # Number of instructions issued per FU type, per thread (Count)
system.cpu.statIssuedInstType_0::SimdFloatMult       262144      0.36%     81.94% # Number of instructions issued per FU type, per thread (Count)
system.cpu.statIssuedInstType_0::SimdFloatMultAcc            0      0.00%     81.94% # Number of instructions issued per FU type, per thread (Count)
system.cpu.statIssuedInstType_0::SimdFloatSqrt            0      0.00%     81.94% # Number of instructions issued per FU type, per thread (Count)
system.cpu.statIssuedInstType_0::SimdReduceAdd            0      0.00%     81.94% # Number of instructions issued per FU type, per thread (Count)
system.cpu.statIssuedInstType_0::SimdReduceAlu            0      0.00%     81.94% # Number of instructions issued per FU type, per thread (Count)
system.cpu.statIssuedInstType_0::SimdReduceCmp            0      0.00%     81.94% # Number of instructions issued per FU type, per thread (Count)
system.cpu.statIssuedInstType_0::SimdFloatReduceAdd            0      0.00%     81.94% # Number of instructions issued per FU type, per thread (Count)
system.cpu.statIssuedInstType_0::SimdFloatReduceCmp            0      0.00%     81.94% # Number of instructions issued per FU type, per thread (Count)
system.cpu.statIssuedInstType_0::SimdAes            0      0.00%     81.94% # Number of instructions issued per FU type, per thread (Count)
system.cpu.statIssuedInstType_0::SimdAesMix            0      0.00%     81.94% # Number of instructions issued per FU type, per thread (Count)
system.cpu.statIssuedInstType_0::SimdSha1Hash            0      0.00%     81.94% # Number of instructions issued per FU type, per thread (Count)
system.cpu.statIssuedInstType_0::SimdSha1Hash2            0      0.00%     81.94% # Number of instructions issued per FU type, per thread (Count)
system.cpu.statIssuedInstType_0::SimdSha256Hash            0      0.00%     81.94% # Number of instructions issued per FU type, per thread (Count)
system.cpu.statIssuedInstType_0::SimdSha256Hash2            0      0.00%     81.94% # Number of instructions issued per FU type, per thread (Count)
system.cpu.statIssuedInstType_0::SimdShaSigma2            0      0.00%     81.94% # Number of instructions issued per FU type, per thread (Count)
system.cpu.statIssuedInstType_0::SimdShaSigma3            0      0.00%     81.94% # Number of instructions issued per FU type, per thread (Count)
system.cpu.statIssuedInstType_0::SimdPredAlu            0      0.00%     81.94% # Number of instructions issued per FU type, per thread (Count)
system.cpu.statIssuedInstType_0::MemRead      7074808      9.81%     91.74% # Number of instructions issued per FU type, per thread (Count)
system.cpu.statIssuedInstType_0::MemWrite      4731566      6.56%     98.30% # Number of instructions issued per FU type, per thread (Count)
system.cpu.statIssuedInstType_0::FloatMemRead       743034      1.03%     99.33% # Number of instructions issued per FU type, per thread (Count)
system.cpu.statIssuedInstType_0::FloatMemWrite       480725      0.67%    100.00% # Number of instructions issued per FU type, per thread (Count)
system.cpu.statIssuedInstType_0::IprAccess            0      0.00%    100.00% # Number of instructions issued per FU type, per thread (Count)
system.cpu.statIssuedInstType_0::InstPrefetch            0      0.00%    100.00% # Number of instructions issued per FU type, per thread (Count)
system.cpu.statIssuedInstType_0::total       72132059                       # Number of instructions issued per FU type, per thread (Count)
system.cpu.issueRate                         2.367509                       # Inst issue rate ((Count/Cycle))
system.cpu.fuBusy                             2160938                       # FU busy when requested (Count)
system.cpu.fuBusyRate                        0.029958                       # FU busy rate (busy events/executed inst) ((Count/Count))
system.cpu.intInstQueueReads                170773362                       # Number of integer instruction queue reads (Count)
system.cpu.intInstQueueWrites                75283536                       # Number of integer instruction queue writes (Count)
system.cpu.intInstQueueWakeupAccesses        68852766                       # Number of integer instruction queue wakeup accesses (Count)
system.cpu.fpInstQueueReads                   5894392                       # Number of floating instruction queue reads (Count)
system.cpu.fpInstQueueWrites                  2774672                       # Number of floating instruction queue writes (Count)
system.cpu.fpInstQueueWakeupAccesses          2724475                       # Number of floating instruction queue wakeup accesses (Count)
system.cpu.vecInstQueueReads                        0                       # Number of vector instruction queue reads (Count)
system.cpu.vecInstQueueWrites                       0                       # Number of vector instruction queue writes (Count)
system.cpu.vecInstQueueWakeupAccesses               0                       # Number of vector instruction queue wakeup accesses (Count)
system.cpu.intAluAccesses                    70407380                       # Number of integer alu accesses (Count)
system.cpu.fpAluAccesses                      3018443                       # Number of floating point alu accesses (Count)
system.cpu.vecAluAccesses                           0                       # Number of vector alu accesses (Count)
system.cpu.numInsts                          71804083                       # Number of executed instructions (Count)
system.cpu.numLoadInsts                       7777686                       # Number of load instructions executed (Count)
system.cpu.numSquashedInsts                    327976                       # Number of squashed instructions skipped in execute (Count)
system.cpu.numSwp                                   0                       # Number of swp insts executed (Count)
system.cpu.numNop                                   0                       # Number of nop insts executed (Count)
system.cpu.numRefs                           12952084                       # Number of memory reference insts executed (Count)
system.cpu.numBranches                        8433379                       # Number of branches executed (Count)
system.cpu.numStoreInsts                      5174398                       # Number of stores executed (Count)
system.cpu.numRate                           2.356744                       # Inst execution rate ((Count/Cycle))
system.cpu.timesIdled                           16800                       # Number of times that the entire CPU went into an idle state and unscheduled itself (Count)
system.cpu.idleCycles                          358084                       # Total number of cycles that the CPU has spent unscheduled due to idling (Cycle)
system.cpu.committedInsts                    34932178                       # Number of Instructions Simulated (Count)
system.cpu.committedOps                      69036779                       # Number of Ops (including micro ops) Simulated (Count)
system.cpu.cpi                               0.872190                       # CPI: Cycles Per Instruction ((Cycle/Count))
system.cpu.totalCpi                          0.872190                       # CPI: Total CPI of All Threads ((Cycle/Count))
system.cpu.ipc                               1.146539                       # IPC: Instructions Per Cycle ((Count/Cycle))
system.cpu.totalIpc                          1.146539                       # IPC: Total IPC of All Threads ((Count/Cycle))
system.cpu.intRegfileReads                  109307617                       # Number of integer regfile reads (Count)
system.cpu.intRegfileWrites                  56941303                       # Number of integer regfile writes (Count)
system.cpu.fpRegfileReads                     3580210                       # Number of floating regfile reads (Count)
system.cpu.fpRegfileWrites                    2069240                       # Number of floating regfile writes (Count)
system.cpu.ccRegfileReads                    43061408                       # number of cc regfile reads (Count)
system.cpu.ccRegfileWrites                   22869305                       # number of cc regfile writes (Count)
system.cpu.miscRegfileReads                  27464320                       # number of misc regfile reads (Count)
system.cpu.MemDepUnit__0.insertedLoads        7707144                       # Number of loads inserted to the mem dependence unit. (Count)
system.cpu.MemDepUnit__0.insertedStores       5294607                       # Number of stores inserted to the mem dependence unit. (Count)
system.cpu.MemDepUnit__0.conflictingLoads       479300                       # Number of conflicting loads. (Count)
system.cpu.MemDepUnit__0.conflictingStores       179521                       # Number of conflicting stores. (Count)
system.cpu.MemDepUnit__1.insertedLoads              0                       # Number of loads inserted to the mem dependence unit. (Count)
system.cpu.MemDepUnit__1.insertedStores             0                       # Number of stores inserted to the mem dependence unit. (Count)
system.cpu.MemDepUnit__1.conflictingLoads            0                       # Number of conflicting loads. (Count)
system.cpu.MemDepUnit__1.conflictingStores            0                       # Number of conflicting stores. (Count)
system.cpu.MemDepUnit__2.insertedLoads              0                       # Number of loads inserted to the mem dependence unit. (Count)
system.cpu.MemDepUnit__2.insertedStores             0                       # Number of stores inserted to the mem dependence unit. (Count)
system.cpu.MemDepUnit__2.conflictingLoads            0                       # Number of conflicting loads. (Count)
system.cpu.MemDepUnit__2.conflictingStores            0                       # Number of conflicting stores. (Count)
system.cpu.MemDepUnit__3.insertedLoads              0                       # Number of loads inserted to the mem dependence unit. (Count)
system.cpu.MemDepUnit__3.insertedStores             0                       # Number of stores inserted to the mem dependence unit. (Count)
system.cpu.MemDepUnit__3.conflictingLoads            0                       # Number of conflicting loads. (Count)
system.cpu.MemDepUnit__3.conflictingStores            0                       # Number of conflicting stores. (Count)
system.cpu.branchPred.lookups                 9390640                       # Number of BP lookups (Count)
system.cpu.branchPred.condPredicted           7530706                       # Number of conditional branches predicted (Count)
system.cpu.branchPred.condIncorrect            150769                       # Number of conditional branches incorrect (Count)
system.cpu.branchPred.BTBLookups              5263111                       # Number of BTB lookups (Count)
system.cpu.branchPred.BTBHits                 5194085                       # Number of BTB hits (Count)
system.cpu.branchPred.BTBHitRatio            0.986885                       # BTB Hit Ratio (Ratio)
system.cpu.branchPred.RASUsed                  534344                       # Number of times the RAS was used to get a target. (Count)
system.cpu.branchPred.RASIncorrect                  3                       # Number of incorrect RAS predictions. (Count)
system.cpu.branchPred.indirectLookups          109851                       # Number of indirect predictor lookups. (Count)
system.cpu.branchPred.indirectHits             108886                       # Number of indirect target hits. (Count)
system.cpu.branchPred.indirectMisses              965                       # Number of indirect misses. (Count)
system.cpu.branchPred.indirectMispredicted          189                       # Number of mispredicted indirect branches. (Count)
system.cpu.commit.commitSquashedInsts         4295200                       # The number of squashed insts skipped by commit (Count)
system.cpu.commit.commitNonSpecStalls              18                       # The number of times commit has been forced to stall to communicate backwards (Count)
system.cpu.commit.branchMispredicts            142232                       # The number of times a branch was mispredicted (Count)
system.cpu.commit.numCommittedDist::samples     29484510                       # Number of insts commited each cycle (Count)
system.cpu.commit.numCommittedDist::mean     2.341459                       # Number of insts commited each cycle (Count)
system.cpu.commit.numCommittedDist::stdev     3.002169                       # Number of insts commited each cycle (Count)
system.cpu.commit.numCommittedDist::underflows            0      0.00%      0.00% # Number of insts commited each cycle (Count)
system.cpu.commit.numCommittedDist::0        13918276     47.21%     47.21% # Number of insts commited each cycle (Count)
system.cpu.commit.numCommittedDist::1         2889525      9.80%     57.01% # Number of insts commited each cycle (Count)
system.cpu.commit.numCommittedDist::2         2285815      7.75%     64.76% # Number of insts commited each cycle (Count)
system.cpu.commit.numCommittedDist::3         2681557      9.09%     73.85% # Number of insts commited each cycle (Count)
system.cpu.commit.numCommittedDist::4         1346775      4.57%     78.42% # Number of insts commited each cycle (Count)
system.cpu.commit.numCommittedDist::5          552066      1.87%     80.29% # Number of insts commited each cycle (Count)
system.cpu.commit.numCommittedDist::6          254675      0.86%     81.16% # Number of insts commited each cycle (Count)
system.cpu.commit.numCommittedDist::7          591095      2.00%     83.16% # Number of insts commited each cycle (Count)
system.cpu.commit.numCommittedDist::8         4964726     16.84%    100.00% # Number of insts commited each cycle (Count)
system.cpu.commit.numCommittedDist::overflows            0      0.00%    100.00% # Number of insts commited each cycle (Count)
system.cpu.commit.numCommittedDist::min_value            0                       # Number of insts commited each cycle (Count)
system.cpu.commit.numCommittedDist::max_value            8                       # Number of insts commited each cycle (Count)
system.cpu.commit.numCommittedDist::total     29484510                       # Number of insts commited each cycle (Count)
system.cpu.commit.instsCommitted             34932178                       # Number of instructions committed (Count)
system.cpu.commit.opsCommitted               69036779                       # Number of ops (including micro ops) committed (Count)
system.cpu.commit.memRefs                    12465518                       # Number of memory references committed (Count)
system.cpu.commit.loads                       7353093                       # Number of loads committed (Count)
system.cpu.commit.amos                              0                       # Number of atomic instructions committed (Count)
system.cpu.commit.membars                          12                       # Number of memory barriers committed (Count)
system.cpu.commit.branches                    8157686                       # Number of branches committed (Count)
system.cpu.commit.vectorInstructions                0                       # Number of committed Vector instructions. (Count)
system.cpu.commit.floating                    2719796                       # Number of committed floating point instructions. (Count)
system.cpu.commit.integer                    65681969                       # Number of committed integer instructions. (Count)
system.cpu.commit.functionCalls                491730                       # Number of function calls committed. (Count)
system.cpu.commit.committedInstType_0::No_OpClass       850896      1.23%      1.23% # Class of committed instruction (Count)
system.cpu.commit.committedInstType_0::IntAlu     53144293     76.98%     78.21% # Class of committed instruction (Count)
system.cpu.commit.committedInstType_0::IntMult        89549      0.13%     78.34% # Class of committed instruction (Count)
system.cpu.commit.committedInstType_0::IntDiv       882475      1.28%     79.62% # Class of committed instruction (Count)
system.cpu.commit.committedInstType_0::FloatAdd       360603      0.52%     80.14% # Class of committed instruction (Count)
system.cpu.commit.committedInstType_0::FloatCmp            0      0.00%     80.14% # Class of committed instruction (Count)
system.cpu.commit.committedInstType_0::FloatCvt            0      0.00%     80.14% # Class of committed instruction (Count)
system.cpu.commit.committedInstType_0::FloatMult            0      0.00%     80.14% # Class of committed instruction (Count)
system.cpu.commit.committedInstType_0::FloatMultAcc            0      0.00%     80.14% # Class of committed instruction (Count)
system.cpu.commit.committedInstType_0::FloatDiv            0      0.00%     80.14% # Class of committed instruction (Count)
system.cpu.commit.committedInstType_0::FloatMisc            0      0.00%     80.14% # Class of committed instruction (Count)
system.cpu.commit.committedInstType_0::FloatSqrt            0      0.00%     80.14% # Class of committed instruction (Count)
system.cpu.commit.committedInstType_0::SimdAdd            0      0.00%     80.14% # Class of committed instruction (Count)
system.cpu.commit.committedInstType_0::SimdAddAcc            0      0.00%     80.14% # Class of committed instruction (Count)
system.cpu.commit.committedInstType_0::SimdAlu       279104      0.40%     80.55% # Class of committed instruction (Count)
system.cpu.commit.committedInstType_0::SimdCmp          336      0.00%     80.55% # Class of committed instruction (Count)
system.cpu.commit.committedInstType_0::SimdCvt       164462      0.24%     80.79% # Class of committed instruction (Count)
system.cpu.commit.committedInstType_0::SimdMisc       242487      0.35%     81.14% # Class of committed instruction (Count)
system.cpu.commit.committedInstType_0::SimdMult            0      0.00%     81.14% # Class of committed instruction (Count)
system.cpu.commit.committedInstType_0::SimdMultAcc            0      0.00%     81.14% # Class of committed instruction (Count)
system.cpu.commit.committedInstType_0::SimdShift            0      0.00%     81.14% # Class of committed instruction (Count)
system.cpu.commit.committedInstType_0::SimdShiftAcc            0      0.00%     81.14% # Class of committed instruction (Count)
system.cpu.commit.committedInstType_0::SimdDiv            0      0.00%     81.14% # Class of committed instruction (Count)
system.cpu.commit.committedInstType_0::SimdSqrt            0      0.00%     81.14% # Class of committed instruction (Count)
system.cpu.commit.committedInstType_0::SimdFloatAdd       278528      0.40%     81.54% # Class of committed instruction (Count)
system.cpu.commit.committedInstType_0::SimdFloatAlu            0      0.00%     81.54% # Class of committed instruction (Count)
system.cpu.commit.committedInstType_0::SimdFloatCmp            0      0.00%     81.54% # Class of committed instruction (Count)
system.cpu.commit.committedInstType_0::SimdFloatCvt        16384      0.02%     81.56% # Class of committed instruction (Count)
system.cpu.commit.committedInstType_0::SimdFloatDiv            0      0.00%     81.56% # Class of committed instruction (Count)
system.cpu.commit.committedInstType_0::SimdFloatMisc            0      0.00%     81.56% # Class of committed instruction (Count)
system.cpu.commit.committedInstType_0::SimdFloatMult       262144      0.38%     81.94% # Class of committed instruction (Count)
system.cpu.commit.committedInstType_0::SimdFloatMultAcc            0      0.00%     81.94% # Class of committed instruction (Count)
system.cpu.commit.committedInstType_0::SimdFloatSqrt            0      0.00%     81.94% # Class of committed instruction (Count)
system.cpu.commit.committedInstType_0::SimdReduceAdd            0      0.00%     81.94% # Class of committed instruction (Count)
system.cpu.commit.committedInstType_0::SimdReduceAlu            0      0.00%     81.94% # Class of committed instruction (Count)
system.cpu.commit.committedInstType_0::SimdReduceCmp            0      0.00%     81.94% # Class of committed instruction (Count)
system.cpu.commit.committedInstType_0::SimdFloatReduceAdd            0      0.00%     81.94% # Class of committed instruction (Count)
system.cpu.commit.committedInstType_0::SimdFloatReduceCmp            0      0.00%     81.94% # Class of committed instruction (Count)
system.cpu.commit.committedInstType_0::SimdAes            0      0.00%     81.94% # Class of committed instruction (Count)
system.cpu.commit.committedInstType_0::SimdAesMix            0      0.00%     81.94% # Class of committed instruction (Count)
system.cpu.commit.committedInstType_0::SimdSha1Hash            0      0.00%     81.94% # Class of committed instruction (Count)
system.cpu.commit.committedInstType_0::SimdSha1Hash2            0      0.00%     81.94% # Class of committed instruction (Count)
system.cpu.commit.committedInstType_0::SimdSha256Hash            0      0.00%     81.94% # Class of committed instruction (Count)
system.cpu.commit.committedInstType_0::SimdSha256Hash2            0      0.00%     81.94% # Class of committed instruction (Count)
system.cpu.commit.committedInstType_0::SimdShaSigma2            0      0.00%     81.94% # Class of committed instruction (Count)
system.cpu.commit.committedInstType_0::SimdShaSigma3            0      0.00%     81.94% # Class of committed instruction (Count)
system.cpu.commit.committedInstType_0::SimdPredAlu            0      0.00%     81.94% # Class of committed instruction (Count)
system.cpu.commit.committedInstType_0::MemRead      6758208      9.79%     91.73% # Class of committed instruction (Count)
system.cpu.commit.committedInstType_0::MemWrite      4632678      6.71%     98.44% # Class of committed instruction (Count)
system.cpu.commit.committedInstType_0::FloatMemRead       594885      0.86%     99.31% # Class of committed instruction (Count)
system.cpu.commit.committedInstType_0::FloatMemWrite       479747      0.69%    100.00% # Class of committed instruction (Count)
system.cpu.commit.committedInstType_0::IprAccess            0      0.00%    100.00% # Class of committed instruction (Count)
system.cpu.commit.committedInstType_0::InstPrefetch            0      0.00%    100.00% # Class of committed instruction (Count)
system.cpu.commit.committedInstType_0::total     69036779                       # Class of committed instruction (Count)
system.cpu.commit.commitEligibleSamples       4964726                       # number cycles where commit BW limit reached (Cycle)
system.cpu.dcache.demandHits::cpu.data       10787652                       # number of demand (read+write) hits (Count)
system.cpu.dcache.demandHits::total          10787652                       # number of demand (read+write) hits (Count)
system.cpu.dcache.overallHits::cpu.data      10787652                       # number of overall hits (Count)
system.cpu.dcache.overallHits::total         10787652                       # number of overall hits (Count)
system.cpu.dcache.demandMisses::cpu.data       555831                       # number of demand (read+write) misses (Count)
system.cpu.dcache.demandMisses::total          555831                       # number of demand (read+write) misses (Count)
system.cpu.dcache.overallMisses::cpu.data       555831                       # number of overall misses (Count)
system.cpu.dcache.overallMisses::total         555831                       # number of overall misses (Count)
system.cpu.dcache.demandMissLatency::cpu.data  25968748995                       # number of demand (read+write) miss ticks (Tick)
system.cpu.dcache.demandMissLatency::total  25968748995                       # number of demand (read+write) miss ticks (Tick)
system.cpu.dcache.overallMissLatency::cpu.data  25968748995                       # number of overall miss ticks (Tick)
system.cpu.dcache.overallMissLatency::total  25968748995                       # number of overall miss ticks (Tick)
system.cpu.dcache.demandAccesses::cpu.data     11343483                       # number of demand (read+write) accesses (Count)
system.cpu.dcache.demandAccesses::total      11343483                       # number of demand (read+write) accesses (Count)
system.cpu.dcache.overallAccesses::cpu.data     11343483                       # number of overall (read+write) accesses (Count)
system.cpu.dcache.overallAccesses::total     11343483                       # number of overall (read+write) accesses (Count)
system.cpu.dcache.demandMissRate::cpu.data     0.049000                       # miss rate for demand accesses (Ratio)
system.cpu.dcache.demandMissRate::total      0.049000                       # miss rate for demand accesses (Ratio)
system.cpu.dcache.overallMissRate::cpu.data     0.049000                       # miss rate for overall accesses (Ratio)
system.cpu.dcache.overallMissRate::total     0.049000                       # miss rate for overall accesses (Ratio)
system.cpu.dcache.demandAvgMissLatency::cpu.data 46720.584125                       # average overall miss latency ((Cycle/Count))
system.cpu.dcache.demandAvgMissLatency::total 46720.584125                       # average overall miss latency ((Cycle/Count))
system.cpu.dcache.overallAvgMissLatency::cpu.data 46720.584125                       # average overall miss latency ((Cycle/Count))
system.cpu.dcache.overallAvgMissLatency::total 46720.584125                       # average overall miss latency ((Cycle/Count))
system.cpu.dcache.blockedCycles::no_mshrs      1390207                       # number of cycles access was blocked (Cycle)
system.cpu.dcache.blockedCycles::no_targets            0                       # number of cycles access was blocked (Cycle)
system.cpu.dcache.blockedCauses::no_mshrs        38254                       # number of times access was blocked (Count)
system.cpu.dcache.blockedCauses::no_targets            0                       # number of times access was blocked (Count)
system.cpu.dcache.avgBlocked::no_mshrs      36.341481                       # average number of cycles each access was blocked ((Cycle/Count))
system.cpu.dcache.avgBlocked::no_targets          nan                       # average number of cycles each access was blocked ((Cycle/Count))
system.cpu.dcache.writebacks::writebacks        94586                       # number of writebacks (Count)
system.cpu.dcache.writebacks::total             94586                       # number of writebacks (Count)
system.cpu.dcache.demandMshrHits::cpu.data       284562                       # number of demand (read+write) MSHR hits (Count)
system.cpu.dcache.demandMshrHits::total        284562                       # number of demand (read+write) MSHR hits (Count)
system.cpu.dcache.overallMshrHits::cpu.data       284562                       # number of overall MSHR hits (Count)
system.cpu.dcache.overallMshrHits::total       284562                       # number of overall MSHR hits (Count)
system.cpu.dcache.demandMshrMisses::cpu.data       271269                       # number of demand (read+write) MSHR misses (Count)
system.cpu.dcache.demandMshrMisses::total       271269                       # number of demand (read+write) MSHR misses (Count)
system.cpu.dcache.overallMshrMisses::cpu.data       271269                       # number of overall MSHR misses (Count)
system.cpu.dcache.overallMshrMisses::total       271269                       # number of overall MSHR misses (Count)
system.cpu.dcache.demandMshrMissLatency::cpu.data  13098062996                       # number of demand (read+write) MSHR miss ticks (Tick)
system.cpu.dcache.demandMshrMissLatency::total  13098062996                       # number of demand (read+write) MSHR miss ticks (Tick)
system.cpu.dcache.overallMshrMissLatency::cpu.data  13098062996                       # number of overall MSHR miss ticks (Tick)
system.cpu.dcache.overallMshrMissLatency::total  13098062996                       # number of overall MSHR miss ticks (Tick)
system.cpu.dcache.demandMshrMissRate::cpu.data     0.023914                       # mshr miss ratio for demand accesses (Ratio)
system.cpu.dcache.demandMshrMissRate::total     0.023914                       # mshr miss ratio for demand accesses (Ratio)
system.cpu.dcache.overallMshrMissRate::cpu.data     0.023914                       # mshr miss ratio for overall accesses (Ratio)
system.cpu.dcache.overallMshrMissRate::total     0.023914                       # mshr miss ratio for overall accesses (Ratio)
system.cpu.dcache.demandAvgMshrMissLatency::cpu.data 48284.407713                       # average overall mshr miss latency ((Cycle/Count))
system.cpu.dcache.demandAvgMshrMissLatency::total 48284.407713                       # average overall mshr miss latency ((Cycle/Count))
system.cpu.dcache.overallAvgMshrMissLatency::cpu.data 48284.407713                       # average overall mshr miss latency ((Cycle/Count))
system.cpu.dcache.overallAvgMshrMissLatency::total 48284.407713                       # average overall mshr miss latency ((Cycle/Count))
system.cpu.dcache.replacements                 271205                       # number of replacements (Count)
system.cpu.dcache.ReadReq.hits::cpu.data      5728441                       # number of ReadReq hits (Count)
system.cpu.dcache.ReadReq.hits::total         5728441                       # number of ReadReq hits (Count)
system.cpu.dcache.ReadReq.misses::cpu.data       502616                       # number of ReadReq misses (Count)
system.cpu.dcache.ReadReq.misses::total        502616                       # number of ReadReq misses (Count)
system.cpu.dcache.ReadReq.missLatency::cpu.data  24617352000                       # number of ReadReq miss ticks (Tick)
system.cpu.dcache.ReadReq.missLatency::total  24617352000                       # number of ReadReq miss ticks (Tick)
system.cpu.dcache.ReadReq.accesses::cpu.data      6231057                       # number of ReadReq accesses(hits+misses) (Count)
system.cpu.dcache.ReadReq.accesses::total      6231057                       # number of ReadReq accesses(hits+misses) (Count)
system.cpu.dcache.ReadReq.missRate::cpu.data     0.080663                       # miss rate for ReadReq accesses (Ratio)
system.cpu.dcache.ReadReq.missRate::total     0.080663                       # miss rate for ReadReq accesses (Ratio)
system.cpu.dcache.ReadReq.avgMissLatency::cpu.data 48978.448756                       # average ReadReq miss latency ((Tick/Count))
system.cpu.dcache.ReadReq.avgMissLatency::total 48978.448756                       # average ReadReq miss latency ((Tick/Count))
system.cpu.dcache.ReadReq.mshrHits::cpu.data       284490                       # number of ReadReq MSHR hits (Count)
system.cpu.dcache.ReadReq.mshrHits::total       284490                       # number of ReadReq MSHR hits (Count)
system.cpu.dcache.ReadReq.mshrMisses::cpu.data       218126                       # number of ReadReq MSHR misses (Count)
system.cpu.dcache.ReadReq.mshrMisses::total       218126                       # number of ReadReq MSHR misses (Count)
system.cpu.dcache.ReadReq.mshrMissLatency::cpu.data  11800989000                       # number of ReadReq MSHR miss ticks (Tick)
system.cpu.dcache.ReadReq.mshrMissLatency::total  11800989000                       # number of ReadReq MSHR miss ticks (Tick)
system.cpu.dcache.ReadReq.mshrMissRate::cpu.data     0.035006                       # mshr miss rate for ReadReq accesses (Ratio)
system.cpu.dcache.ReadReq.mshrMissRate::total     0.035006                       # mshr miss rate for ReadReq accesses (Ratio)
system.cpu.dcache.ReadReq.avgMshrMissLatency::cpu.data 54101.707270                       # average ReadReq mshr miss latency ((Tick/Count))
system.cpu.dcache.ReadReq.avgMshrMissLatency::total 54101.707270                       # average ReadReq mshr miss latency ((Tick/Count))
system.cpu.dcache.WriteReq.hits::cpu.data      5059211                       # number of WriteReq hits (Count)
system.cpu.dcache.WriteReq.hits::total        5059211                       # number of WriteReq hits (Count)
system.cpu.dcache.WriteReq.misses::cpu.data        53215                       # number of WriteReq misses (Count)
system.cpu.dcache.WriteReq.misses::total        53215                       # number of WriteReq misses (Count)
system.cpu.dcache.WriteReq.missLatency::cpu.data   1351396995                       # number of WriteReq miss ticks (Tick)
system.cpu.dcache.WriteReq.missLatency::total   1351396995                       # number of WriteReq miss ticks (Tick)
system.cpu.dcache.WriteReq.accesses::cpu.data      5112426                       # number of WriteReq accesses(hits+misses) (Count)
system.cpu.dcache.WriteReq.accesses::total      5112426                       # number of WriteReq accesses(hits+misses) (Count)
system.cpu.dcache.WriteReq.missRate::cpu.data     0.010409                       # miss rate for WriteReq accesses (Ratio)
system.cpu.dcache.WriteReq.missRate::total     0.010409                       # miss rate for WriteReq accesses (Ratio)
system.cpu.dcache.WriteReq.avgMissLatency::cpu.data 25395.038899                       # average WriteReq miss latency ((Tick/Count))
system.cpu.dcache.WriteReq.avgMissLatency::total 25395.038899                       # average WriteReq miss latency ((Tick/Count))
system.cpu.dcache.WriteReq.mshrHits::cpu.data           72                       # number of WriteReq MSHR hits (Count)
system.cpu.dcache.WriteReq.mshrHits::total           72                       # number of WriteReq MSHR hits (Count)
system.cpu.dcache.WriteReq.mshrMisses::cpu.data        53143                       # number of WriteReq MSHR misses (Count)
system.cpu.dcache.WriteReq.mshrMisses::total        53143                       # number of WriteReq MSHR misses (Count)
system.cpu.dcache.WriteReq.mshrMissLatency::cpu.data   1297073996                       # number of WriteReq MSHR miss ticks (Tick)
system.cpu.dcache.WriteReq.mshrMissLatency::total   1297073996                       # number of WriteReq MSHR miss ticks (Tick)
system.cpu.dcache.WriteReq.mshrMissRate::cpu.data     0.010395                       # mshr miss rate for WriteReq accesses (Ratio)
system.cpu.dcache.WriteReq.mshrMissRate::total     0.010395                       # mshr miss rate for WriteReq accesses (Ratio)
system.cpu.dcache.WriteReq.avgMshrMissLatency::cpu.data 24407.240765                       # average WriteReq mshr miss latency ((Tick/Count))
system.cpu.dcache.WriteReq.avgMshrMissLatency::total 24407.240765                       # average WriteReq mshr miss latency ((Tick/Count))
system.cpu.dcache.power_state.pwrStateResidencyTicks::UNDEFINED  15233744000                       # Cumulative time (in ticks) in various power states (Tick)
system.cpu.dcache.tags.tagsInUse            63.984485                       # Average ticks per tags in use ((Tick/Count))
system.cpu.dcache.tags.totalRefs             11058921                       # Total number of references to valid blocks. (Count)
system.cpu.dcache.tags.sampledRefs             271269                       # Sample count of references to valid blocks. (Count)
system.cpu.dcache.tags.avgRefs              40.767360                       # Average number of references to valid blocks. ((Count/Count))
system.cpu.dcache.tags.warmupTick              145000                       # The tick when the warmup percentage was hit. (Tick)
system.cpu.dcache.tags.occupancies::cpu.data    63.984485                       # Average occupied blocks per tick, per requestor ((Count/Tick))
system.cpu.dcache.tags.avgOccs::cpu.data     0.999758                       # Average percentage of cache occupancy ((Ratio/Tick))
system.cpu.dcache.tags.avgOccs::total        0.999758                       # Average percentage of cache occupancy ((Ratio/Tick))
system.cpu.dcache.tags.occupanciesTaskId::1024           64                       # Occupied blocks per task id (Count)
system.cpu.dcache.tags.ageTaskId_1024::0           64                       # Occupied blocks per task id, per block age (Count)
system.cpu.dcache.tags.ratioOccsTaskId::1024            1                       # Ratio of occupied blocks and all blocks, per task id (Ratio)
system.cpu.dcache.tags.tagAccesses           22958235                       # Number of tag accesses (Count)
system.cpu.dcache.tags.dataAccesses          22958235                       # Number of data accesses (Count)
system.cpu.dcache.tags.power_state.pwrStateResidencyTicks::UNDEFINED  15233744000                       # Cumulative time (in ticks) in various power states (Tick)
system.cpu.decode.idleCycles                  4696714                       # Number of cycles decode is idle (Cycle)
system.cpu.decode.blockedCycles              14043769                       # Number of cycles decode is blocked (Cycle)
system.cpu.decode.runCycles                   9249306                       # Number of cycles decode is running (Cycle)
system.cpu.decode.unblockCycles               1972620                       # Number of cycles decode is unblocking (Cycle)
system.cpu.decode.squashCycles                 146996                       # Number of cycles decode is squashing (Cycle)
system.cpu.decode.branchResolved              4891809                       # Number of times decode resolved a branch (Count)
system.cpu.decode.branchMispred                  8653                       # Number of times decode detected a branch misprediction (Count)
system.cpu.decode.decodedInsts               75305509                       # Number of instructions handled by decode (Count)
system.cpu.decode.squashedInsts                 36071                       # Number of squashed instructions handled by decode (Count)
system.cpu.dtb_walker_cache.blockedCycles::no_mshrs            0                       # number of cycles access was blocked (Cycle)
system.cpu.dtb_walker_cache.blockedCycles::no_targets            0                       # number of cycles access was blocked (Cycle)
system.cpu.dtb_walker_cache.blockedCauses::no_mshrs            0                       # number of times access was blocked (Count)
system.cpu.dtb_walker_cache.blockedCauses::no_targets            0                       # number of times access was blocked (Count)
system.cpu.dtb_walker_cache.avgBlocked::no_mshrs          nan                       # average number of cycles each access was blocked ((Cycle/Count))
system.cpu.dtb_walker_cache.avgBlocked::no_targets          nan                       # average number of cycles each access was blocked ((Cycle/Count))
system.cpu.dtb_walker_cache.replacements            0                       # number of replacements (Count)
system.cpu.dtb_walker_cache.power_state.pwrStateResidencyTicks::UNDEFINED  15233744000                       # Cumulative time (in ticks) in various power states (Tick)
system.cpu.dtb_walker_cache.tags.tagsInUse            0                       # Average ticks per tags in use ((Tick/Count))
system.cpu.dtb_walker_cache.tags.totalRefs            0                       # Total number of references to valid blocks. (Count)
system.cpu.dtb_walker_cache.tags.sampledRefs            0                       # Sample count of references to valid blocks. (Count)
system.cpu.dtb_walker_cache.tags.avgRefs          nan                       # Average number of references to valid blocks. ((Count/Count))
system.cpu.dtb_walker_cache.tags.warmupTick            0                       # The tick when the warmup percentage was hit. (Tick)
system.cpu.dtb_walker_cache.tags.tagAccesses            0                       # Number of tag accesses (Count)
system.cpu.dtb_walker_cache.tags.dataAccesses            0                       # Number of data accesses (Count)
system.cpu.dtb_walker_cache.tags.power_state.pwrStateResidencyTicks::UNDEFINED  15233744000                       # Cumulative time (in ticks) in various power states (Tick)
system.cpu.fetch.icacheStallCycles            5622327                       # Number of cycles fetch is stalled on an Icache miss (Cycle)
system.cpu.fetch.insts                       38374458                       # Number of instructions fetch has processed (Count)
system.cpu.fetch.branches                     9390640                       # Number of branches that fetch encountered (Count)
system.cpu.fetch.predictedBranches            5837315                       # Number of branches that fetch has predicted taken (Count)
system.cpu.fetch.cycles                      24330554                       # Number of cycles fetch has run and was not squashing or blocked (Cycle)
system.cpu.fetch.squashCycles                  311282                       # Number of cycles fetch has spent squashing (Cycle)
system.cpu.fetch.miscStallCycles                  121                       # Number of cycles fetch has spent waiting on interrupts, or bad addresses, or out of MSHRs (Cycle)
system.cpu.fetch.pendingTrapStallCycles           706                       # Number of stall cycles due to pending traps (Cycle)
system.cpu.fetch.pendingQuiesceStallCycles            1                       # Number of stall cycles due to pending quiesce instructions (Cycle)
system.cpu.fetch.icacheWaitRetryStallCycles           55                       # Number of stall cycles due to full MSHR (Cycle)
system.cpu.fetch.cacheLines                   4823780                       # Number of cache lines fetched (Count)
system.cpu.fetch.icacheSquashes                 36541                       # Number of outstanding Icache misses that were squashed (Count)
system.cpu.fetch.nisnDist::samples           30109405                       # Number of instructions fetched each cycle (Total) (Count)
system.cpu.fetch.nisnDist::mean              2.570517                       # Number of instructions fetched each cycle (Total) (Count)
system.cpu.fetch.nisnDist::stdev             3.396056                       # Number of instructions fetched each cycle (Total) (Count)
system.cpu.fetch.nisnDist::underflows               0      0.00%      0.00% # Number of instructions fetched each cycle (Total) (Count)
system.cpu.fetch.nisnDist::0                 17425213     57.87%     57.87% # Number of instructions fetched each cycle (Total) (Count)
system.cpu.fetch.nisnDist::1                   868760      2.89%     60.76% # Number of instructions fetched each cycle (Total) (Count)
system.cpu.fetch.nisnDist::2                   764242      2.54%     63.30% # Number of instructions fetched each cycle (Total) (Count)
system.cpu.fetch.nisnDist::3                   629584      2.09%     65.39% # Number of instructions fetched each cycle (Total) (Count)
system.cpu.fetch.nisnDist::4                  1361280      4.52%     69.91% # Number of instructions fetched each cycle (Total) (Count)
system.cpu.fetch.nisnDist::5                  1022942      3.40%     73.31% # Number of instructions fetched each cycle (Total) (Count)
system.cpu.fetch.nisnDist::6                   545529      1.81%     75.12% # Number of instructions fetched each cycle (Total) (Count)
system.cpu.fetch.nisnDist::7                   657098      2.18%     77.30% # Number of instructions fetched each cycle (Total) (Count)
system.cpu.fetch.nisnDist::8                  6834757     22.70%    100.00% # Number of instructions fetched each cycle (Total) (Count)
system.cpu.fetch.nisnDist::overflows                0      0.00%    100.00% # Number of instructions fetched each cycle (Total) (Count)
system.cpu.fetch.nisnDist::min_value                0                       # Number of instructions fetched each cycle (Total) (Count)
system.cpu.fetch.nisnDist::max_value                8                       # Number of instructions fetched each cycle (Total) (Count)
system.cpu.fetch.nisnDist::total             30109405                       # Number of instructions fetched each cycle (Total) (Count)
system.cpu.fetch.branchRate                  0.308218                       # Number of branch fetches per cycle (Ratio)
system.cpu.fetch.rate                        1.259522                       # Number of inst fetches per cycle ((Count/Cycle))
system.cpu.icache.demandHits::cpu.inst        4792558                       # number of demand (read+write) hits (Count)
system.cpu.icache.demandHits::total           4792558                       # number of demand (read+write) hits (Count)
system.cpu.icache.overallHits::cpu.inst       4792558                       # number of overall hits (Count)
system.cpu.icache.overallHits::total          4792558                       # number of overall hits (Count)
system.cpu.icache.demandMisses::cpu.inst        31222                       # number of demand (read+write) misses (Count)
system.cpu.icache.demandMisses::total           31222                       # number of demand (read+write) misses (Count)
system.cpu.icache.overallMisses::cpu.inst        31222                       # number of overall misses (Count)
system.cpu.icache.overallMisses::total          31222                       # number of overall misses (Count)
system.cpu.icache.demandMissLatency::cpu.inst    673539498                       # number of demand (read+write) miss ticks (Tick)
system.cpu.icache.demandMissLatency::total    673539498                       # number of demand (read+write) miss ticks (Tick)
system.cpu.icache.overallMissLatency::cpu.inst    673539498                       # number of overall miss ticks (Tick)
system.cpu.icache.overallMissLatency::total    673539498                       # number of overall miss ticks (Tick)
system.cpu.icache.demandAccesses::cpu.inst      4823780                       # number of demand (read+write) accesses (Count)
system.cpu.icache.demandAccesses::total       4823780                       # number of demand (read+write) accesses (Count)
system.cpu.icache.overallAccesses::cpu.inst      4823780                       # number of overall (read+write) accesses (Count)
system.cpu.icache.overallAccesses::total      4823780                       # number of overall (read+write) accesses (Count)
system.cpu.icache.demandMissRate::cpu.inst     0.006473                       # miss rate for demand accesses (Ratio)
system.cpu.icache.demandMissRate::total      0.006473                       # miss rate for demand accesses (Ratio)
system.cpu.icache.overallMissRate::cpu.inst     0.006473                       # miss rate for overall accesses (Ratio)
system.cpu.icache.overallMissRate::total     0.006473                       # miss rate for overall accesses (Ratio)
system.cpu.icache.demandAvgMissLatency::cpu.inst 21572.592979                       # average overall miss latency ((Cycle/Count))
system.cpu.icache.demandAvgMissLatency::total 21572.592979                       # average overall miss latency ((Cycle/Count))
system.cpu.icache.overallAvgMissLatency::cpu.inst 21572.592979                       # average overall miss latency ((Cycle/Count))
system.cpu.icache.overallAvgMissLatency::total 21572.592979                       # average overall miss latency ((Cycle/Count))
system.cpu.icache.blockedCycles::no_mshrs          319                       # number of cycles access was blocked (Cycle)
system.cpu.icache.blockedCycles::no_targets            0                       # number of cycles access was blocked (Cycle)
system.cpu.icache.blockedCauses::no_mshrs            6                       # number of times access was blocked (Count)
system.cpu.icache.blockedCauses::no_targets            0                       # number of times access was blocked (Count)
system.cpu.icache.avgBlocked::no_mshrs      53.166667                       # average number of cycles each access was blocked ((Cycle/Count))
system.cpu.icache.avgBlocked::no_targets          nan                       # average number of cycles each access was blocked ((Cycle/Count))
system.cpu.icache.writebacks::writebacks        25216                       # number of writebacks (Count)
system.cpu.icache.writebacks::total             25216                       # number of writebacks (Count)
system.cpu.icache.demandMshrHits::cpu.inst         5512                       # number of demand (read+write) MSHR hits (Count)
system.cpu.icache.demandMshrHits::total          5512                       # number of demand (read+write) MSHR hits (Count)
system.cpu.icache.overallMshrHits::cpu.inst         5512                       # number of overall MSHR hits (Count)
system.cpu.icache.overallMshrHits::total         5512                       # number of overall MSHR hits (Count)
system.cpu.icache.demandMshrMisses::cpu.inst        25710                       # number of demand (read+write) MSHR misses (Count)
system.cpu.icache.demandMshrMisses::total        25710                       # number of demand (read+write) MSHR misses (Count)
system.cpu.icache.overallMshrMisses::cpu.inst        25710                       # number of overall MSHR misses (Count)
system.cpu.icache.overallMshrMisses::total        25710                       # number of overall MSHR misses (Count)
system.cpu.icache.demandMshrMissLatency::cpu.inst    597816999                       # number of demand (read+write) MSHR miss ticks (Tick)
system.cpu.icache.demandMshrMissLatency::total    597816999                       # number of demand (read+write) MSHR miss ticks (Tick)
system.cpu.icache.overallMshrMissLatency::cpu.inst    597816999                       # number of overall MSHR miss ticks (Tick)
system.cpu.icache.overallMshrMissLatency::total    597816999                       # number of overall MSHR miss ticks (Tick)
system.cpu.icache.demandMshrMissRate::cpu.inst     0.005330                       # mshr miss ratio for demand accesses (Ratio)
system.cpu.icache.demandMshrMissRate::total     0.005330                       # mshr miss ratio for demand accesses (Ratio)
system.cpu.icache.overallMshrMissRate::cpu.inst     0.005330                       # mshr miss ratio for overall accesses (Ratio)
system.cpu.icache.overallMshrMissRate::total     0.005330                       # mshr miss ratio for overall accesses (Ratio)
system.cpu.icache.demandAvgMshrMissLatency::cpu.inst 23252.314236                       # average overall mshr miss latency ((Cycle/Count))
system.cpu.icache.demandAvgMshrMissLatency::total 23252.314236                       # average overall mshr miss latency ((Cycle/Count))
system.cpu.icache.overallAvgMshrMissLatency::cpu.inst 23252.314236                       # average overall mshr miss latency ((Cycle/Count))
system.cpu.icache.overallAvgMshrMissLatency::total 23252.314236                       # average overall mshr miss latency ((Cycle/Count))
system.cpu.icache.replacements                  25216                       # number of replacements (Count)
system.cpu.icache.ReadReq.hits::cpu.inst      4792558                       # number of ReadReq hits (Count)
system.cpu.icache.ReadReq.hits::total         4792558                       # number of ReadReq hits (Count)
system.cpu.icache.ReadReq.misses::cpu.inst        31222                       # number of ReadReq misses (Count)
system.cpu.icache.ReadReq.misses::total         31222                       # number of ReadReq misses (Count)
system.cpu.icache.ReadReq.missLatency::cpu.inst    673539498                       # number of ReadReq miss ticks (Tick)
system.cpu.icache.ReadReq.missLatency::total    673539498                       # number of ReadReq miss ticks (Tick)
system.cpu.icache.ReadReq.accesses::cpu.inst      4823780                       # number of ReadReq accesses(hits+misses) (Count)
system.cpu.icache.ReadReq.accesses::total      4823780                       # number of ReadReq accesses(hits+misses) (Count)
system.cpu.icache.ReadReq.missRate::cpu.inst     0.006473                       # miss rate for ReadReq accesses (Ratio)
system.cpu.icache.ReadReq.missRate::total     0.006473                       # miss rate for ReadReq accesses (Ratio)
system.cpu.icache.ReadReq.avgMissLatency::cpu.inst 21572.592979                       # average ReadReq miss latency ((Tick/Count))
system.cpu.icache.ReadReq.avgMissLatency::total 21572.592979                       # average ReadReq miss latency ((Tick/Count))
system.cpu.icache.ReadReq.mshrHits::cpu.inst         5512                       # number of ReadReq MSHR hits (Count)
system.cpu.icache.ReadReq.mshrHits::total         5512                       # number of ReadReq MSHR hits (Count)
system.cpu.icache.ReadReq.mshrMisses::cpu.inst        25710                       # number of ReadReq MSHR misses (Count)
system.cpu.icache.ReadReq.mshrMisses::total        25710                       # number of ReadReq MSHR misses (Count)
system.cpu.icache.ReadReq.mshrMissLatency::cpu.inst    597816999                       # number of ReadReq MSHR miss ticks (Tick)
system.cpu.icache.ReadReq.mshrMissLatency::total    597816999                       # number of ReadReq MSHR miss ticks (Tick)
system.cpu.icache.ReadReq.mshrMissRate::cpu.inst     0.005330                       # mshr miss rate for ReadReq accesses (Ratio)
system.cpu.icache.ReadReq.mshrMissRate::total     0.005330                       # mshr miss rate for ReadReq accesses (Ratio)
system.cpu.icache.ReadReq.avgMshrMissLatency::cpu.inst 23252.314236                       # average ReadReq mshr miss latency ((Tick/Count))
system.cpu.icache.ReadReq.avgMshrMissLatency::total 23252.314236                       # average ReadReq mshr miss latency ((Tick/Count))
system.cpu.icache.power_state.pwrStateResidencyTicks::UNDEFINED  15233744000                       # Cumulative time (in ticks) in various power states (Tick)
system.cpu.icache.tags.tagsInUse           452.958429                       # Average ticks per tags in use ((Tick/Count))
system.cpu.icache.tags.totalRefs              4818267                       # Total number of references to valid blocks. (Count)
system.cpu.icache.tags.sampledRefs              25709                       # Sample count of references to valid blocks. (Count)
system.cpu.icache.tags.avgRefs             187.415574                       # Average number of references to valid blocks. ((Count/Count))
system.cpu.icache.tags.warmupTick               77000                       # The tick when the warmup percentage was hit. (Tick)
system.cpu.icache.tags.occupancies::cpu.inst   452.958429                       # Average occupied blocks per tick, per requestor ((Count/Tick))
system.cpu.icache.tags.avgOccs::cpu.inst     0.884684                       # Average percentage of cache occupancy ((Ratio/Tick))
system.cpu.icache.tags.avgOccs::total        0.884684                       # Average percentage of cache occupancy ((Ratio/Tick))
system.cpu.icache.tags.occupanciesTaskId::1024          493                       # Occupied blocks per task id (Count)
system.cpu.icache.tags.ageTaskId_1024::0          126                       # Occupied blocks per task id, per block age (Count)
system.cpu.icache.tags.ageTaskId_1024::1           20                       # Occupied blocks per task id, per block age (Count)
system.cpu.icache.tags.ageTaskId_1024::3          172                       # Occupied blocks per task id, per block age (Count)
system.cpu.icache.tags.ageTaskId_1024::4          175                       # Occupied blocks per task id, per block age (Count)
system.cpu.icache.tags.ratioOccsTaskId::1024     0.962891                       # Ratio of occupied blocks and all blocks, per task id (Ratio)
system.cpu.icache.tags.tagAccesses            9673269                       # Number of tag accesses (Count)
system.cpu.icache.tags.dataAccesses           9673269                       # Number of data accesses (Count)
system.cpu.icache.tags.power_state.pwrStateResidencyTicks::UNDEFINED  15233744000                       # Cumulative time (in ticks) in various power states (Tick)
system.cpu.iew.idleCycles                           0                       # Number of cycles IEW is idle (Cycle)
system.cpu.iew.squashCycles                    146996                       # Number of cycles IEW is squashing (Cycle)
system.cpu.iew.blockCycles                    5402944                       # Number of cycles IEW is blocking (Cycle)
system.cpu.iew.unblockCycles                   274128                       # Number of cycles IEW is unblocking (Cycle)
system.cpu.iew.dispatchedInsts               73547144                       # Number of instructions dispatched to IQ (Count)
system.cpu.iew.dispSquashedInsts                47824                       # Number of squashed instructions skipped by dispatch (Count)
system.cpu.iew.dispLoadInsts                  7707144                       # Number of dispatched load instructions (Count)
system.cpu.iew.dispStoreInsts                 5294607                       # Number of dispatched store instructions (Count)
system.cpu.iew.dispNonSpecInsts                    19                       # Number of dispatched non-speculative instructions (Count)
system.cpu.iew.iqFullEvents                     91111                       # Number of times the IQ has become full, causing a stall (Count)
system.cpu.iew.lsqFullEvents                   124570                       # Number of times the LSQ has become full, causing a stall (Count)
system.cpu.iew.memOrderViolationEvents            712                       # Number of memory order violations (Count)
system.cpu.iew.predictedTakenIncorrect          70211                       # Number of branches that were predicted taken incorrectly (Count)
system.cpu.iew.predictedNotTakenIncorrect       102866                       # Number of branches that were predicted not taken incorrectly (Count)
system.cpu.iew.branchMispredicts               173077                       # Number of branch mispredicts detected at execute (Count)
system.cpu.iew.instsToCommit                 71628367                       # Cumulative count of insts sent to commit (Count)
system.cpu.iew.writebackCount                71577241                       # Cumulative count of insts written-back (Count)
system.cpu.iew.producerInst                  49866864                       # Number of instructions producing a value (Count)
system.cpu.iew.consumerInst                  91421376                       # Number of instructions consuming a value (Count)
system.cpu.iew.wbRate                        2.349299                       # Insts written-back per cycle ((Count/Cycle))
system.cpu.iew.wbFanout                      0.545462                       # Average fanout of values written-back ((Count/Count))
system.cpu.interrupts.clk_domain.clock           8000                       # Clock period in ticks (Tick)
system.cpu.itb_walker_cache.blockedCycles::no_mshrs            0                       # number of cycles access was blocked (Cycle)
system.cpu.itb_walker_cache.blockedCycles::no_targets            0                       # number of cycles access was blocked (Cycle)
system.cpu.itb_walker_cache.blockedCauses::no_mshrs            0                       # number of times access was blocked (Count)
system.cpu.itb_walker_cache.blockedCauses::no_targets            0                       # number of times access was blocked (Count)
system.cpu.itb_walker_cache.avgBlocked::no_mshrs          nan                       # average number of cycles each access was blocked ((Cycle/Count))
system.cpu.itb_walker_cache.avgBlocked::no_targets          nan                       # average number of cycles each access was blocked ((Cycle/Count))
system.cpu.itb_walker_cache.replacements            0                       # number of replacements (Count)
system.cpu.itb_walker_cache.power_state.pwrStateResidencyTicks::UNDEFINED  15233744000                       # Cumulative time (in ticks) in various power states (Tick)
system.cpu.itb_walker_cache.tags.tagsInUse            0                       # Average ticks per tags in use ((Tick/Count))
system.cpu.itb_walker_cache.tags.totalRefs            0                       # Total number of references to valid blocks. (Count)
system.cpu.itb_walker_cache.tags.sampledRefs            0                       # Sample count of references to valid blocks. (Count)
system.cpu.itb_walker_cache.tags.avgRefs          nan                       # Average number of references to valid blocks. ((Count/Count))
system.cpu.itb_walker_cache.tags.warmupTick            0                       # The tick when the warmup percentage was hit. (Tick)
system.cpu.itb_walker_cache.tags.tagAccesses            0                       # Number of tag accesses (Count)
system.cpu.itb_walker_cache.tags.dataAccesses            0                       # Number of data accesses (Count)
system.cpu.itb_walker_cache.tags.power_state.pwrStateResidencyTicks::UNDEFINED  15233744000                       # Cumulative time (in ticks) in various power states (Tick)
system.cpu.lsq0.forwLoads                     1420168                       # Number of loads that had data forwarded from stores (Count)
system.cpu.lsq0.squashedLoads                  354051                       # Number of loads squashed (Count)
system.cpu.lsq0.ignoredResponses                   27                       # Number of memory responses ignored because the instruction is squashed (Count)
system.cpu.lsq0.memOrderViolation                 712                       # Number of memory ordering violations (Count)
system.cpu.lsq0.squashedStores                 182182                       # Number of stores squashed (Count)
system.cpu.lsq0.rescheduledLoads                    2                       # Number of loads that were rescheduled (Count)
system.cpu.lsq0.blockedByCache                  37795                       # Number of times an access to memory failed due to the cache being blocked (Count)
system.cpu.lsq0.loadToUse::samples            7353093                       # Distribution of cycle latency between the first time a load is issued and its completion (Unspecified)
system.cpu.lsq0.loadToUse::mean             10.267401                       # Distribution of cycle latency between the first time a load is issued and its completion (Unspecified)
system.cpu.lsq0.loadToUse::stdev            32.106989                       # Distribution of cycle latency between the first time a load is issued and its completion (Unspecified)
system.cpu.lsq0.loadToUse::0-9                6848688     93.14%     93.14% # Distribution of cycle latency between the first time a load is issued and its completion (Unspecified)
system.cpu.lsq0.loadToUse::10-19                 8201      0.11%     93.25% # Distribution of cycle latency between the first time a load is issued and its completion (Unspecified)
system.cpu.lsq0.loadToUse::20-29                 4183      0.06%     93.31% # Distribution of cycle latency between the first time a load is issued and its completion (Unspecified)
system.cpu.lsq0.loadToUse::30-39                19857      0.27%     93.58% # Distribution of cycle latency between the first time a load is issued and its completion (Unspecified)
system.cpu.lsq0.loadToUse::40-49                40119      0.55%     94.12% # Distribution of cycle latency between the first time a load is issued and its completion (Unspecified)
system.cpu.lsq0.loadToUse::50-59                34950      0.48%     94.60% # Distribution of cycle latency between the first time a load is issued and its completion (Unspecified)
system.cpu.lsq0.loadToUse::60-69                21051      0.29%     94.89% # Distribution of cycle latency between the first time a load is issued and its completion (Unspecified)
system.cpu.lsq0.loadToUse::70-79                 4965      0.07%     94.95% # Distribution of cycle latency between the first time a load is issued and its completion (Unspecified)
system.cpu.lsq0.loadToUse::80-89                 6754      0.09%     95.05% # Distribution of cycle latency between the first time a load is issued and its completion (Unspecified)
[...]
system.mem_ctrls.dram.bwWrite::total        397374670                       # Write bandwidth from this memory ((Byte/Second))
system.mem_ctrls.dram.bwTotal::writebacks    397374670                       # Total bandwidth to/from this memory ((Byte/Second))
system.mem_ctrls.dram.bwTotal::cpu.inst     108008642                       # Total bandwidth to/from this memory ((Byte/Second))
system.mem_ctrls.dram.bwTotal::cpu.data    1139655229                       # Total bandwidth to/from this memory ((Byte/Second))
system.mem_ctrls.dram.bwTotal::total       1645038541                       # Total bandwidth to/from this memory ((Byte/Second))
system.mem_ctrls.dram.readBursts               192882                       # Number of DRAM read bursts (Count)
system.mem_ctrls.dram.writeBursts               16800                       # Number of DRAM write bursts (Count)
system.mem_ctrls.dram.perBankRdBursts::0         2959                       # Per bank write bursts (Count)
system.mem_ctrls.dram.perBankRdBursts::1         7479                       # Per bank write bursts (Count)
system.mem_ctrls.dram.perBankRdBursts::2        17762                       # Per bank write bursts (Count)
system.mem_ctrls.dram.perBankRdBursts::3        18044                       # Per bank write bursts (Count)
system.mem_ctrls.dram.perBankRdBursts::4         9473                       # Per bank write bursts (Count)
system.mem_ctrls.dram.perBankRdBursts::5         5300                       # Per bank write bursts (Count)
system.mem_ctrls.dram.perBankRdBursts::6        24689                       # Per bank write bursts (Count)
system.mem_ctrls.dram.perBankRdBursts::7         9201                       # Per bank write bursts (Count)
system.mem_ctrls.dram.perBankRdBursts::8        34475                       # Per bank write bursts (Count)
system.mem_ctrls.dram.perBankRdBursts::9        10244                       # Per bank write bursts (Count)
system.mem_ctrls.dram.perBankRdBursts::10         5045                       # Per bank write bursts (Count)
system.mem_ctrls.dram.perBankRdBursts::11        30512                       # Per bank write bursts (Count)
system.mem_ctrls.dram.perBankRdBursts::12          836                       # Per bank write bursts (Count)
system.mem_ctrls.dram.perBankRdBursts::13         2749                       # Per bank write bursts (Count)
system.mem_ctrls.dram.perBankRdBursts::14        11047                       # Per bank write bursts (Count)
system.mem_ctrls.dram.perBankRdBursts::15         3067                       # Per bank write bursts (Count)
system.mem_ctrls.dram.perBankWrBursts::0          561                       # Per bank write bursts (Count)
system.mem_ctrls.dram.perBankWrBursts::1          575                       # Per bank write bursts (Count)
system.mem_ctrls.dram.perBankWrBursts::2          564                       # Per bank write bursts (Count)
system.mem_ctrls.dram.perBankWrBursts::3          581                       # Per bank write bursts (Count)
system.mem_ctrls.dram.perBankWrBursts::4          559                       # Per bank write bursts (Count)
system.mem_ctrls.dram.perBankWrBursts::5         1798                       # Per bank write bursts (Count)
system.mem_ctrls.dram.perBankWrBursts::6         2457                       # Per bank write bursts (Count)
system.mem_ctrls.dram.perBankWrBursts::7         2409                       # Per bank write bursts (Count)
system.mem_ctrls.dram.perBankWrBursts::8         2546                       # Per bank write bursts (Count)
system.mem_ctrls.dram.perBankWrBursts::9          606                       # Per bank write bursts (Count)
system.mem_ctrls.dram.perBankWrBursts::10         1234                       # Per bank write bursts (Count)
system.mem_ctrls.dram.perBankWrBursts::11          316                       # Per bank write bursts (Count)
system.mem_ctrls.dram.perBankWrBursts::12          300                       # Per bank write bursts (Count)
system.mem_ctrls.dram.perBankWrBursts::13         1170                       # Per bank write bursts (Count)
system.mem_ctrls.dram.perBankWrBursts::14          535                       # Per bank write bursts (Count)
system.mem_ctrls.dram.perBankWrBursts::15          589                       # Per bank write bursts (Count)
system.mem_ctrls.dram.totQLat              1667246750                       # Total ticks spent queuing (Tick)
system.mem_ctrls.dram.totBusLat             964410000                       # Total ticks spent in databus transfers (Tick)
system.mem_ctrls.dram.totMemAccLat         5283784250                       # Total ticks spent from burst creation until serviced by the DRAM (Tick)
system.mem_ctrls.dram.avgQLat                 8643.87                       # Average queueing delay per DRAM burst ((Tick/Count))
system.mem_ctrls.dram.avgBusLat               5000.00                       # Average bus latency per DRAM burst ((Tick/Count))
system.mem_ctrls.dram.avgMemAccLat           27393.87                       # Average memory access latency per DRAM burst ((Tick/Count))
system.mem_ctrls.dram.readRowHits              164937                       # Number of row buffer hits during reads (Count)
system.mem_ctrls.dram.writeRowHits              15443                       # Number of row buffer hits during writes (Count)
system.mem_ctrls.dram.readRowHitRate            85.51                       # Row buffer hit rate for reads (Ratio)
system.mem_ctrls.dram.writeRowHitRate           91.92                       # Row buffer hit rate for writes (Ratio)
system.mem_ctrls.dram.bytesPerActivate::samples        29290                       # Bytes accessed per row activation (Byte)
system.mem_ctrls.dram.bytesPerActivate::mean   458.079618                       # Bytes accessed per row activation (Byte)
system.mem_ctrls.dram.bytesPerActivate::gmean   288.217758                       # Bytes accessed per row activation (Byte)
system.mem_ctrls.dram.bytesPerActivate::stdev   372.499477                       # Bytes accessed per row activation (Byte)
system.mem_ctrls.dram.bytesPerActivate::0-127         7260     24.79%     24.79% # Bytes accessed per row activation (Byte)
system.mem_ctrls.dram.bytesPerActivate::128-255         3640     12.43%     37.21% # Bytes accessed per row activation (Byte)
system.mem_ctrls.dram.bytesPerActivate::256-383         4887     16.68%     53.90% # Bytes accessed per row activation (Byte)
system.mem_ctrls.dram.bytesPerActivate::384-511          935      3.19%     57.09% # Bytes accessed per row activation (Byte)
system.mem_ctrls.dram.bytesPerActivate::512-639         2799      9.56%     66.65% # Bytes accessed per row activation (Byte)
system.mem_ctrls.dram.bytesPerActivate::640-767         1662      5.67%     72.32% # Bytes accessed per row activation (Byte)
system.mem_ctrls.dram.bytesPerActivate::768-895          432      1.47%     73.80% # Bytes accessed per row activation (Byte)
system.mem_ctrls.dram.bytesPerActivate::896-1023         1571      5.36%     79.16% # Bytes accessed per row activation (Byte)
system.mem_ctrls.dram.bytesPerActivate::1024-1151         6104     20.84%    100.00% # Bytes accessed per row activation (Byte)
system.mem_ctrls.dram.bytesPerActivate::total        29290                       # Bytes accessed per row activation (Byte)
system.mem_ctrls.dram.bytesRead              12344448                       # Total bytes read (Byte)
system.mem_ctrls.dram.bytesWritten            1075200                       # Total bytes written (Byte)
system.mem_ctrls.dram.avgRdBW              810.335791                       # Average DRAM read bandwidth in MiBytes/s ((Byte/Second))
system.mem_ctrls.dram.avgWrBW               70.580154                       # Average DRAM write bandwidth in MiBytes/s ((Byte/Second))
system.mem_ctrls.dram.peakBW                 12800.00                       # Theoretical peak bandwidth in MiByte/s ((Byte/Second))
system.mem_ctrls.dram.busUtil                    6.88                       # Data bus utilization in percentage (Ratio)
system.mem_ctrls.dram.busUtilRead                6.33                       # Data bus utilization in percentage for reads (Ratio)
system.mem_ctrls.dram.busUtilWrite               0.55                       # Data bus utilization in percentage for writes (Ratio)
system.mem_ctrls.dram.pageHitRate               86.03                       # Row buffer hit rate, read and write combined (Ratio)
system.mem_ctrls.dram.power_state.pwrStateResidencyTicks::UNDEFINED  15233744000                       # Cumulative time (in ticks) in various power states (Tick)
system.mem_ctrls.dram.rank0.actEnergy        99260280                       # Energy for activate commands per rank (pJ) (Joule)
system.mem_ctrls.dram.rank0.preEnergy        52735320                       # Energy for precharge commands per rank (pJ) (Joule)
system.mem_ctrls.dram.rank0.readEnergy      677635980                       # Energy for read commands per rank (pJ) (Joule)
system.mem_ctrls.dram.rank0.writeEnergy      49610880                       # Energy for write commands per rank (pJ) (Joule)
system.mem_ctrls.dram.rank0.refreshEnergy 1202235840.000000                       # Energy for refresh commands per rank (pJ) (Joule)
system.mem_ctrls.dram.rank0.actBackEnergy   6721493010                       # Energy for active background per rank (pJ) (Joule)
system.mem_ctrls.dram.rank0.preBackEnergy    189553440                       # Energy for precharge background per rank (pJ) (Joule)
system.mem_ctrls.dram.rank0.actPowerDownEnergy            0                       # Energy for active power-down per rank (pJ) (Joule)
system.mem_ctrls.dram.rank0.prePowerDownEnergy            0                       # Energy for precharge power-down per rank (pJ) (Joule)
system.mem_ctrls.dram.rank0.selfRefreshEnergy            0                       # Energy for self refresh per rank (pJ) (Joule)
system.mem_ctrls.dram.rank0.totalEnergy    8992524750                       # Total energy per rank (pJ) (Joule)
system.mem_ctrls.dram.rank0.averagePower   590.302998                       # Core power per rank (mW) (Watt)
system.mem_ctrls.dram.rank0.totalIdleTime            0                       # Total Idle time Per DRAM Rank (Tick)
system.mem_ctrls.dram.rank0.pwrStateTime::IDLE    437781500                       # Time in different power states (Tick)
system.mem_ctrls.dram.rank0.pwrStateTime::REF    508560000                       # Time in different power states (Tick)
system.mem_ctrls.dram.rank0.pwrStateTime::SREF            0                       # Time in different power states (Tick)
system.mem_ctrls.dram.rank0.pwrStateTime::PRE_PDN            0                       # Time in different power states (Tick)
system.mem_ctrls.dram.rank0.pwrStateTime::ACT  14287402500                       # Time in different power states (Tick)
system.mem_ctrls.dram.rank0.pwrStateTime::ACT_PDN            0                       # Time in different power states (Tick)
system.mem_ctrls.dram.rank1.actEnergy       109956000                       # Energy for activate commands per rank (pJ) (Joule)
system.mem_ctrls.dram.rank1.preEnergy        58420230                       # Energy for precharge commands per rank (pJ) (Joule)
system.mem_ctrls.dram.rank1.readEnergy      699541500                       # Energy for read commands per rank (pJ) (Joule)
system.mem_ctrls.dram.rank1.writeEnergy      38085120                       # Energy for write commands per rank (pJ) (Joule)
system.mem_ctrls.dram.rank1.refreshEnergy 1202235840.000000                       # Energy for refresh commands per rank (pJ) (Joule)
system.mem_ctrls.dram.rank1.actBackEnergy   6791025030                       # Energy for active background per rank (pJ) (Joule)
system.mem_ctrls.dram.rank1.preBackEnergy    131000160                       # Energy for precharge background per rank (pJ) (Joule)
system.mem_ctrls.dram.rank1.actPowerDownEnergy            0                       # Energy for active power-down per rank (pJ) (Joule)
system.mem_ctrls.dram.rank1.prePowerDownEnergy            0                       # Energy for precharge power-down per rank (pJ) (Joule)
system.mem_ctrls.dram.rank1.selfRefreshEnergy            0                       # Energy for self refresh per rank (pJ) (Joule)
system.mem_ctrls.dram.rank1.totalEnergy    9030263880                       # Total energy per rank (pJ) (Joule)
system.mem_ctrls.dram.rank1.averagePower   592.780336                       # Core power per rank (mW) (Watt)
system.mem_ctrls.dram.rank1.totalIdleTime            0                       # Total Idle time Per DRAM Rank (Tick)
system.mem_ctrls.dram.rank1.pwrStateTime::IDLE    285078750                       # Time in different power states (Tick)
system.mem_ctrls.dram.rank1.pwrStateTime::REF    508560000                       # Time in different power states (Tick)
system.mem_ctrls.dram.rank1.pwrStateTime::SREF            0                       # Time in different power states (Tick)
system.mem_ctrls.dram.rank1.pwrStateTime::PRE_PDN            0                       # Time in different power states (Tick)
system.mem_ctrls.dram.rank1.pwrStateTime::ACT  14440105250                       # Time in different power states (Tick)
system.mem_ctrls.dram.rank1.pwrStateTime::ACT_PDN            0                       # Time in different power states (Tick)
system.mem_ctrls.power_state.pwrStateResidencyTicks::UNDEFINED  15233744000                       # Cumulative time (in ticks) in various power states (Tick)
system.membus.transDist::ReadResp              243835                       # Transaction distribution (Count)
system.membus.transDist::WritebackDirty         94586                       # Transaction distribution (Count)
system.membus.transDist::WritebackClean         25216                       # Transaction distribution (Count)
system.membus.transDist::CleanEvict            176619                       # Transaction distribution (Count)
system.membus.transDist::ReadExReq              53143                       # Transaction distribution (Count)
system.membus.transDist::ReadExResp             53143                       # Transaction distribution (Count)
system.membus.transDist::ReadCleanReq           25710                       # Transaction distribution (Count)
system.membus.transDist::ReadSharedReq         218126                       # Transaction distribution (Count)
system.membus.pktCount_system.cpu.icache.mem_side_port::system.mem_ctrls.port        76635                       # Packet count per connected requestor and responder (Count)
system.membus.pktCount_system.cpu.icache.mem_side_port::total        76635                       # Packet count per connected requestor and responder (Count)
system.membus.pktCount_system.cpu.dcache.mem_side_port::system.mem_ctrls.port       813743                       # Packet count per connected requestor and responder (Count)
system.membus.pktCount_system.cpu.dcache.mem_side_port::total       813743                       # Packet count per connected requestor and responder (Count)
system.membus.pktCount::total                  890378                       # Packet count per connected requestor and responder (Count)
system.membus.pktSize_system.cpu.icache.mem_side_port::system.mem_ctrls.port      3259200                       # Cumulative packet size per connected requestor and responder (Byte)
system.membus.pktSize_system.cpu.icache.mem_side_port::total      3259200                       # Cumulative packet size per connected requestor and responder (Byte)
system.membus.pktSize_system.cpu.dcache.mem_side_port::system.mem_ctrls.port     23414720                       # Cumulative packet size per connected requestor and responder (Byte)
system.membus.pktSize_system.cpu.dcache.mem_side_port::total     23414720                       # Cumulative packet size per connected requestor and responder (Byte)
system.membus.pktSize::total                 26673920                       # Cumulative packet size per connected requestor and responder (Byte)
system.membus.snoops                                0                       # Total snoops (Count)
system.membus.snoopTraffic                          0                       # Total snoop traffic (Byte)
system.membus.snoopFanout::samples             296979                       # Request fanout histogram (Count)
system.membus.snoopFanout::mean              0.000727                       # Request fanout histogram (Count)
system.membus.snoopFanout::stdev             0.026959                       # Request fanout histogram (Count)
system.membus.snoopFanout::underflows               0      0.00%      0.00% # Request fanout histogram (Count)
system.membus.snoopFanout::0                   296763     99.93%     99.93% # Request fanout histogram (Count)
system.membus.snoopFanout::1                      216      0.07%    100.00% # Request fanout histogram (Count)
system.membus.snoopFanout::2                        0      0.00%    100.00% # Request fanout histogram (Count)
system.membus.snoopFanout::3                        0      0.00%    100.00% # Request fanout histogram (Count)
system.membus.snoopFanout::4                        0      0.00%    100.00% # Request fanout histogram (Count)
system.membus.snoopFanout::overflows                0      0.00%    100.00% # Request fanout histogram (Count)
system.membus.snoopFanout::min_value                0                       # Request fanout histogram (Count)
system.membus.snoopFanout::max_value                1                       # Request fanout histogram (Count)
system.membus.snoopFanout::total               296979                       # Request fanout histogram (Count)
system.membus.power_state.pwrStateResidencyTicks::UNDEFINED  15233744000                       # Cumulative time (in ticks) in various power states (Tick)
system.membus.reqLayer2.occupancy          1132125500                       # Layer occupancy (ticks) (Tick)
system.membus.reqLayer2.utilization               0.1                       # Layer utilization (Ratio)
system.membus.respLayer1.occupancy          128923245                       # Layer occupancy (ticks) (Tick)
system.membus.respLayer1.utilization              0.0                       # Layer utilization (Ratio)
system.membus.respLayer2.occupancy         1410860750                       # Layer occupancy (ticks) (Tick)
system.membus.respLayer2.utilization              0.1                       # Layer utilization (Ratio)
system.membus.snoop_filter.totRequests         593400                       # Total number of requests made to the snoop filter. (Count)
system.membus.snoop_filter.hitSingleRequests       296422                       # Number of requests hitting in the snoop filter with a single holder of the requested data. (Count)
system.membus.snoop_filter.hitMultiRequests          215                       # Number of requests hitting in the snoop filter with multiple (>1) holders of the requested data. (Count)
system.membus.snoop_filter.totSnoops                0                       # Total number of snoops made to the snoop filter. (Count)
system.membus.snoop_filter.hitSingleSnoops            0                       # Number of snoops hitting in the snoop filter with a single holder of the requested data. (Count)
system.membus.snoop_filter.hitMultiSnoops            0                       # Number of snoops hitting in the snoop filter with multiple (>1) holders of the requested data. (Count)
system.voltage_domain.voltage                       1                       # Voltage in Volts (Volt)
system.workload.inst.arm                            0                       # number of arm instructions executed (Count)
system.workload.inst.quiesce                        0                       # number of quiesce instructions executed (Count)

---------- End Simulation Statistics   ----------
