
---------- Begin Simulation Statistics ----------
simSeconds                                   0.010424                       # Number of seconds simulated (Second)
simTicks                                  10423504000                       # Number of ticks simulated (Tick)
finalTick                                 10423504000                       # Number of ticks from beginning of simulation (restored from checkpoints and never reset) (Tick)
simFreq                                  1000000000000                       # The number of ticks per simulated second ((Tick/Second))
hostSeconds                                    123.69                       # Real time elapsed on the host (Second)
hostTickRate                                 84268660                       # The number of ticks simulated per host second (ticks/s) ((Tick/Second))
hostMemory                                     666936                       # Number of bytes of host memory used (Byte)
simInsts                                     34932178                       # Number of instructions simulated (Count)
simOps                                       69036779                       # Number of ops (including micro ops) simulated (Count)
hostInstRate                                   282408                       # Simulator instruction rate (inst/s) ((Count/Second))
hostOpRate                                     558126                       # Simulator op (including micro ops) rate (op/s) ((Count/Second))
system.clk_domain.clock                          1000                       # Clock period in ticks (Tick)
system.cpu.numCycles                         20847009                       # Number of cpu cycles simulated (Cycle)
system.cpu.numWorkItemsStarted                      0                       # Number of work items this cpu started (Count)
system.cpu.numWorkItemsCompleted                    0                       # Number of work items this cpu completed (Count)
system.cpu.instsAdded                        73024348                       # Number of instructions added to the IQ (excludes non-spec) (Count)
system.cpu.nonSpecInstsAdded                       45                       # Number of non-speculative instructions added to the IQ (Count)
system.cpu.instsIssued                       71662626                       # Number of instructions issued (Count)
system.cpu.squashedInstsIssued                  28124                       # Number of squashed instructions issued (Count)
system.cpu.squashedInstsExamined              3987608                       # Number of squashed instructions iterated over during squash; mainly for profiling (Count)
system.cpu.squashedOperandsExamined           6007330                       # Number of squashed operands that are examined and possibly removed from graph (Count)
system.cpu.squashedNonSpecRemoved                  27                       # Number of squashed non-spec instructions that were removed (Count)
system.cpu.numIssuedDist::samples            20617570                       # Number of insts issued each cycle (Count)
system.cpu.numIssuedDist::mean               3.475804                       # Number of insts issued each cycle (Count)
system.cpu.numIssuedDist::stdev              2.340855                       # Number of insts issued each cycle (Count)
system.cpu.numIssuedDist::underflows                0      0.00%      0.00% # Number of insts issued each cycle (Count)
system.cpu.numIssuedDist::0                   3070019     14.89%     14.89% # Number of insts issued each cycle (Count)
system.cpu.numIssuedDist::1                   1880064      9.12%     24.01% # Number of insts issued each cycle (Count)
system.cpu.numIssuedDist::2                   2436909     11.82%     35.83% # Number of insts issued each cycle (Count)
system.cpu.numIssuedDist::3                   3326672     16.14%     51.96% # Number of insts issued each cycle (Count)
system.cpu.numIssuedDist::4                   2704945     13.12%     65.08% # Number of insts issued each cycle (Count)
system.cpu.numIssuedDist::5                   2250572     10.92%     76.00% # Number of insts issued each cycle (Count)
system.cpu.numIssuedDist::6                   2609281     12.66%     88.65% # Number of insts issued each cycle (Count)
system.cpu.numIssuedDist::7                   1512462      7.34%     95.99% # Number of insts issued each cycle (Count)
system.cpu.numIssuedDist::8                    826646      4.01%    100.00% # Number of insts issued each cycle (Count)
system.cpu.numIssuedDist::overflows                 0      0.00%    100.00% # Number of insts issued each cycle (Count)
system.cpu.numIssuedDist::min_value                 0                       # Number of insts issued each cycle (Count)
system.cpu.numIssuedDist::max_value                 8                       # Number of insts issued each cycle (Count)
system.cpu.numIssuedDist::total              20617570                       # Number of insts issued each cycle (Count)
system.cpu.statFuBusy::No_OpClass                   0      0.00%      0.00% # attempts to use FU when none available (Count)
system.cpu.statFuBusy::IntAlu                 1565549     90.02%     90.02% # attempts to use FU when none available (Count)
system.cpu.statFuBusy::IntMult                      0      0.00%     90.02% # attempts to use FU when none available (Count)
system.cpu.statFuBusy::IntDiv                       0      0.00%     90.02% # attempts to use FU when none available (Count)
system.cpu.statFuBusy::FloatAdd                     0      0.00%     90.02% # attempts to use FU when none available (Count)
system.cpu.statFuBusy::FloatCmp                     0      0.00%     90.02% # attempts to use FU when none available (Count)
system.cpu.statFuBusy::FloatCvt                     0      0.00%     90.02% # attempts to use FU when none available (Count)
system.cpu.statFuBusy::FloatMult                    0      0.00%     90.02% # attempts to use FU when none available (Count)
system.cpu.statFuBusy::FloatMultAcc                 0      0.00%     90.02% # attempts to use FU when none available (Count)
system.cpu.statFuBusy::FloatDiv                     0      0.00%     90.02% # attempts to use FU when none available (Count)
system.cpu.statFuBusy::FloatMisc                    0      0.00%     90.02% # attempts to use FU when none available (Count)
system.cpu.statFuBusy::FloatSqrt                    0      0.00%     90.02% # attempts to use FU when none available (Count)
system.cpu.statFuBusy::SimdAdd                      0      0.00%     90.02% # attempts to use FU when none available (Count)
system.cpu.statFuBusy::SimdAddAcc                   0      0.00%     90.02% # attempts to use FU when none available (Count)
system.cpu.statFuBusy::SimdAlu                  28777      1.65%     91.67% # attempts to use FU when none available (Count)
system.cpu.statFuBusy::SimdCmp                      0      0.00%     91.67% # attempts to use FU when none available (Count)
system.cpu.statFuBusy::SimdCvt                    122      0.01%     91.68% # attempts to use FU when none available (Count)
system.cpu.statFuBusy::SimdMisc                  8910      0.51%     92.19% # attempts to use FU when none available (Count)
system.cpu.statFuBusy::SimdMult                     0      0.00%     92.19% # attempts to use FU when none available (Count)
system.cpu.statFuBusy::SimdMultAcc                  0      0.00%     92.19% # attempts to use FU when none available (Count)
system.cpu.statFuBusy::SimdShift                    0      0.00%     92.19% # attempts to use FU when none available (Count)
system.cpu.statFuBusy::SimdShiftAcc                 0      0.00%     92.19% # attempts to use FU when none available (Count)
system.cpu.statFuBusy::SimdDiv                      0      0.00%     92.19% # attempts to use FU when none available (Count)
system.cpu.statFuBusy::SimdSqrt                     0      0.00%     92.19% # attempts to use FU when none available (Count)
system.cpu.statFuBusy::SimdFloatAdd              1330      0.08%     92.27% # attempts to use FU when none available (Count)
system.cpu.statFuBusy::SimdFloatAlu                 0      0.00%     92.27% # attempts to use FU when none available (Count)
system.cpu.statFuBusy::SimdFloatCmp                 0      0.00%     92.27% # attempts to use FU when none available (Count)
system.cpu.statFuBusy::SimdFloatCvt                 0      0.00%     92.27% # attempts to use FU when none available (Count)
system.cpu.statFuBusy::SimdFloatDiv                 0      0.00%     92.27% # attempts to use FU when none available (Count)
system.cpu.statFuBusy::SimdFloatMisc                0      0.00%     92.27% # attempts to use FU when none available (Count)
system.cpu.statFuBusy::SimdFloatMult             3692      0.21%     92.48% # attempts to use FU when none available (Count)
system.cpu.statFuBusy::SimdFloatMultAcc             0      0.00%     92.48% # attempts to use FU when none available (Count)
system.cpu.statFuBusy::SimdFloatSqrt                0      0.00%     92.48% # attempts to use FU when none available (Count)
system.cpu.statFuBusy::SimdReduceAdd                0      0.00%     92.48% # attempts to use FU when none available (Count)
system.cpu.statFuBusy::SimdReduceAlu                0      0.00%     92.48% # attempts to use FU when none available (Count)
system.cpu.statFuBusy::SimdReduceCmp                0      0.00%     92.48% # attempts to use FU when none available (Count)
system.cpu.statFuBusy::SimdFloatReduceAdd            0      0.00%     92.48% # attempts to use FU when none available (Count)
system.cpu.statFuBusy::SimdFloatReduceCmp            0      0.00%     92.48% # attempts to use FU when none available (Count)
system.cpu.statFuBusy::SimdAes                      0      0.00%     92.48% # attempts to use FU when none available (Count)
system.cpu.statFuBusy::SimdAesMix                   0      0.00%     92.48% # attempts to use FU when none available (Count)
system.cpu.statFuBusy::SimdSha1Hash                 0      0.00%     92.48% # attempts to use FU when none available (Count)
system.cpu.statFuBusy::SimdSha1Hash2                0      0.00%     92.48% # attempts to use FU when none available (Count)
system.cpu.statFuBusy::SimdSha256Hash               0      0.00%     92.48% # attempts to use FU when none available (Count)
system.cpu.statFuBusy::SimdSha256Hash2              0      0.00%     92.48% # attempts to use FU when none available (Count)
system.cpu.statFuBusy::SimdShaSigma2                0      0.00%     92.48% # attempts to use FU when none available (Count)
system.cpu.statFuBusy::SimdShaSigma3                0      0.00%     92.48% # attempts to use FU when none available (Count)
system.cpu.statFuBusy::SimdPredAlu                  0      0.00%     92.48% # attempts to use FU when none available (Count)
system.cpu.statFuBusy::MemRead                  98060      5.64%     98.12% # attempts to use FU when none available (Count)
system.cpu.statFuBusy::MemWrite                  1346      0.08%     98.20% # attempts to use FU when none available (Count)
system.cpu.statFuBusy::FloatMemRead             14853      0.85%     99.05% # attempts to use FU when none available (Count)
system.cpu.statFuBusy::FloatMemWrite            16539      0.95%    100.00% # attempts to use FU when none available (Count)
system.cpu.statFuBusy::IprAccess                    0      0.00%    100.00% # attempts to use FU when none available (Count)
system.cpu.statFuBusy::InstPrefetch                 0      0.00%    100.00% # attempts to use FU when none available (Count)
system.cpu.statIssuedInstType_0::No_OpClass       866585      1.21%      1.21% # Number of instructions issued per FU type, per thread (Count)
system.cpu.statIssuedInstType_0::IntAlu      55353969     77.24%     78.45% # Number of instructions issued per FU type, per thread (Count)
system.cpu.statIssuedInstType_0::IntMult        89549      0.12%     78.58% # Number of instructions issued per FU type, per thread (Count)
system.cpu.statIssuedInstType_0::IntDiv        910452      1.27%     79.85% # Number of instructions issued per FU type, per thread (Count)
system.cpu.statIssuedInstType_0::FloatAdd       367006      0.51%     80.36% # Number of instructions issued per FU type, per thread (Count)
system.cpu.statIssuedInstType_0::FloatCmp            0      0.00%     80.36% # Number of instructions issued per FU type, per thread (Count)
system.cpu.statIssuedInstType_0::FloatCvt            0      0.00%     80.36% # Number of instructions issued per FU type, per thread (Count)
system.cpu.statIssuedInstType_0::FloatMult            0      0.00%     80.36% # Number of instructions issued per FU type, per thread (Count)
system.cpu.statIssuedInstType_0::FloatMultAcc            0      0.00%     80.36% # Number of instructions issued per FU type, per thread (Count)
system.cpu.statIssuedInstType_0::FloatDiv            0      0.00%     80.36% # Number of instructions issued per FU type, per thread (Count)
system.cpu.statIssuedInstType_0::FloatMisc            0      0.00%     80.36% # Number of instructions issued per FU type, per thread (Count)
system.cpu.statIssuedInstType_0::FloatSqrt            0      0.00%     80.36% # Number of instructions issued per FU type, per thread (Count)
system.cpu.statIssuedInstType_0::SimdAdd            0      0.00%     80.36% # Number of instructions issued per FU type, per thread (Count)
system.cpu.statIssuedInstType_0::SimdAddAcc            0      0.00%     80.36% # Number of instructions issued per FU type, per thread (Count)
system.cpu.statIssuedInstType_0::SimdAlu       279301      0.39%     80.75% # Number of instructions issued per FU type, per thread (Count)
system.cpu.statIssuedInstType_0::SimdCmp          336      0.00%     80.75% # Number of instructions issued per FU type, per thread (Count)
system.cpu.statIssuedInstType_0::SimdCvt       164768      0.23%     80.98% # Number of instructions issued per FU type, per thread (Count)
system.cpu.statIssuedInstType_0::SimdMisc       242670      0.34%     81.32% # Number of instructions issued per FU type, per thread (Count)
system.cpu.statIssuedInstType_0::SimdMult            0      0.00%     81.32% # Number of instructions issued per FU type, per thread (Count)
system.cpu.statIssuedInstType_0::SimdMultAcc            0      0.00%     81.32% # Number of instructions issued per FU type, per thread (Count)
system.cpu.statIssuedInstType_0::SimdShift            0      0.00%     81.32% # Number of instructions issued per FU type, per thread (Count)
system.cpu.statIssuedInstType_0::SimdShiftAcc            0      0.00%     81.32% # Number of instructions issued per FU type, per thread (Count)
system.cpu.statIssuedInstType_0::SimdDiv            0      0.00%     81.32% # Number of instructions issued per FU type, per thread (Count)
system.cpu.statIssuedInstType_0::SimdSqrt            0      0.00%     81.32% # Number of instructions issued per FU type, per thread (Count)
system.cpu.statIssuedInstType_0::SimdFloatAdd       278528      0.39%     81.71% # Number of instructions issued per FU type, per thread (Count)
system.cpu.statIssuedInstType_0::SimdFloatAlu            0      0.00%     81.71% # Number of instructions issued per FU type, per thread (Count)
system.cpu.statIssuedInstType_0::SimdFloatCmp            0      0.00%     81.71% # Number of instructions issued per FU type, per thread (Count)
system.cpu.statIssuedInstType_0::SimdFloatCvt        16384      0.02%     81.73% # Number of instructions issued per FU type, per thread (Count)
system.cpu.statIssuedInstType_0::SimdFloatDiv            0      0.00%     81.73% # Number of instructions issued per FU type, per thread (Count)
system.cpu.statIssuedInstType_0::SimdFloatMisc            0      0.00%     81.73% # Number of instructions issued per FU type, per thread (Count)
system.cpu.statIssuedInstType_0::SimdFloatMult       262144      0.37%     82.10% # Number of instructions issued per FU type, per thread (Count)
system.cpu.statIssuedInstType_0::SimdFloatMultAcc            0      0.00%     82.10% # Number of instructions issued per FU type, per thread (Count)
system.cpu.statIssuedInstType_0::SimdFloatSqrt            0      0.00%     82.10% # Number of instructions issued per FU type, per thread (Count)
system.cpu.statIssuedInstType_0::SimdReduceAdd            0      0.00%     82.10% # Number of instructions issued per FU type, per thread (Count)
system.cpu.statIssuedInstType_0::SimdReduceAlu            0      0.00%     82.10% # Number of instructions issued per FU type, per thread (Count)
system.cpu.statIssuedInstType_0::SimdReduceCmp            0      0.00%     82.10% # Number of instructions issued per FU type, per thread (Count)
system.cpu.statIssuedInstType_0::SimdFloatReduceAdd            0      0.00%     82.10% # Number of instructions issued per FU type, per thread (Count)
system.cpu.statIssuedInstType_0::SimdFloatReduceCmp            0      0.00%     82.10% # Number of instructions issued per FU type, per thread (Count)
system.cpu.statIssuedInstType_0::SimdAes            0      0.00%     82.10% # Number of instructions issued per FU type, per thread (Count)
system.cpu.statIssuedInstType_0::SimdAesMix            0      0.00%     82.10% # Number of instructions issued per FU type, per thread (Count)
system.cpu.statIssuedInstType_0::SimdSha1Hash            0      0.00%     82.10% # Number of instructions issued per FU type, per thread (Count)
system.cpu.statIssuedInstType_0::SimdSha1Hash2            0      0.00%     82.10% # Number of instructions issued per FU type, per thread (Count)
system.cpu.statIssuedInstType_0::SimdSha256Hash            0      0.00%     82.10% # Number of instructions issued per FU type, per thread (Count)
system.cpu.statIssuedInstType_0::SimdSha256Hash2            0      0.00%     82.10% # Number of instructions issued per FU type, per thread (Count)
system.cpu.statIssuedInstType_0::SimdShaSigma2            0      0.00%     82.10% # Number of instructions issued per FU type, per thread (Count)
system.cpu.statIssuedInstType_0::SimdShaSigma3            0      0.00%     82.10% # Number of instructions issued per FU type, per thread (Count)
system.cpu.statIssuedInstType_0::SimdPredAlu            0      0.00%     82.10% # Number of instructions issued per FU type, per thread (Count)
system.cpu.statIssuedInstType_0::MemRead      7015501      9.79%     91.88% # Number of instructions issued per FU type, per thread (Count)
system.cpu.statIssuedInstType_0::MemWrite      4732670      6.60%     98.49% # Number of instructions issued per FU type, per thread (Count)
system.cpu.statIssuedInstType_0::FloatMemRead       602121      0.84%     99.33% # Number of instructions issued per FU type, per thread (Count)
system.cpu.statIssuedInstType_0::FloatMemWrite       480642      0.67%    100.00% # Number of instructions issued per FU type, per thread (Count)
system.cpu.statIssuedInstType_0::IprAccess            0      0.00%    100.00% # Number of instructions issued per FU type, per thread (Count)
system.cpu.statIssuedInstType_0::InstPrefetch            0      0.00%    100.00% # Number of instructions issued per FU type, per thread (Count)
system.cpu.statIssuedInstType_0::total       71662626                       # Number of instructions issued per FU type, per thread (Count)
system.cpu.issueRate                         3.437550                       # Inst issue rate ((Count/Cycle))
system.cpu.fuBusy                             1739178                       # FU busy when requested (Count)
system.cpu.fuBusyRate                        0.024269                       # FU busy rate (busy events/executed inst) ((Count/Count))
system.cpu.intInstQueueReads                160165816                       # Number of integer instruction queue reads (Count)
system.cpu.intInstQueueWrites                74238939                       # Number of integer instruction queue writes (Count)
system.cpu.intInstQueueWakeupAccesses        68486953                       # Number of integer instruction queue wakeup accesses (Count)
system.cpu.fpInstQueueReads                   5544308                       # Number of floating instruction queue reads (Count)
system.cpu.fpInstQueueWrites                  2773378                       # Number of floating instruction queue writes (Count)
system.cpu.fpInstQueueWakeupAccesses          2724412                       # Number of floating instruction queue wakeup accesses (Count)
system.cpu.vecInstQueueReads                        0                       # Number of vector instruction queue reads (Count)
system.cpu.vecInstQueueWrites                       0                       # Number of vector instruction queue writes (Count)
system.cpu.vecInstQueueWakeupAccesses               0                       # Number of vector instruction queue wakeup accesses (Count)
system.cpu.intAluAccesses                    69725964                       # Number of integer alu accesses (Count)
system.cpu.fpAluAccesses                      2809255                       # Number of floating point alu accesses (Count)
system.cpu.vecAluAccesses                           0                       # Number of vector alu accesses (Count)
system.cpu.numInsts                          71288362                       # Number of executed instructions (Count)
system.cpu.numLoadInsts                       7577943                       # Number of load instructions executed (Count)
system.cpu.numSquashedInsts                    374264                       # Number of squashed instructions skipped in execute (Count)
system.cpu.numSwp                                   0                       # Number of swp insts executed (Count)
system.cpu.numNop                                   0                       # Number of nop insts executed (Count)
system.cpu.numRefs                           12748455                       # Number of memory reference insts executed (Count)
system.cpu.numBranches                        8405750                       # Number of branches executed (Count)
system.cpu.numStoreInsts                      5170512                       # Number of stores executed (Count)
system.cpu.numRate                           3.419597                       # Inst execution rate ((Count/Cycle))
system.cpu.timesIdled                           13034                       # Number of times that the entire CPU went into an idle state and unscheduled itself (Count)
system.cpu.idleCycles                          229439                       # Total number of cycles that the CPU has spent unscheduled due to idling (Cycle)
system.cpu.committedInsts                    34932178                       # Number of Instructions Simulated (Count)
system.cpu.committedOps                      69036779                       # Number of Ops (including micro ops) Simulated (Count)
system.cpu.cpi                               0.596785                       # CPI: Cycles Per Instruction ((Cycle/Count))
system.cpu.totalCpi                          0.596785                       # CPI: Total CPI of All Threads ((Cycle/Count))
system.cpu.ipc                               1.675645                       # IPC: Instructions Per Cycle ((Count/Cycle))
system.cpu.totalIpc                          1.675645                       # IPC: Total IPC of All Threads ((Count/Cycle))
system.cpu.intRegfileReads                  108510493                       # Number of integer regfile reads (Count)
system.cpu.intRegfileWrites                  56614302                       # Number of integer regfile writes (Count)
system.cpu.fpRegfileReads                     3579855                       # Number of floating regfile reads (Count)
system.cpu.fpRegfileWrites                    2069419                       # Number of floating regfile writes (Count)
system.cpu.ccRegfileReads                    42945777                       # number of cc regfile reads (Count)
system.cpu.ccRegfileWrites                   22757238                       # number of cc regfile writes (Count)
system.cpu.miscRegfileReads                  27188168                       # number of misc regfile reads (Count)
system.cpu.MemDepUnit__0.insertedLoads        7656100                       # Number of loads inserted to the mem dependence unit. (Count)
system.cpu.MemDepUnit__0.insertedStores       5303107                       # Number of stores inserted to the mem dependence unit. (Count)
system.cpu.MemDepUnit__0.conflictingLoads       245888                       # Number of conflicting loads. (Count)
system.cpu.MemDepUnit__0.conflictingStores        24096                       # Number of conflicting stores. (Count)
system.cpu.MemDepUnit__1.insertedLoads              0                       # Number of loads inserted to the mem dependence unit. (Count)
system.cpu.MemDepUnit__1.insertedStores             0                       # Number of stores inserted to the mem dependence unit. (Count)
system.cpu.MemDepUnit__1.conflictingLoads            0                       # Number of conflicting loads. (Count)
system.cpu.MemDepUnit__1.conflictingStores            0                       # Number of conflicting stores. (Count)
system.cpu.MemDepUnit__2.insertedLoads              0                       # Number of loads inserted to the mem dependence unit. (Count)
system.cpu.MemDepUnit__2.insertedStores             0                       # Number of stores inserted to the mem dependence unit. (Count)
system.cpu.MemDepUnit__2.conflictingLoads            0                       # Number of conflicting loads. (Count)
system.cpu.MemDepUnit__2.conflictingStores            0                       # Number of conflicting stores. (Count)
system.cpu.MemDepUnit__3.insertedLoads              0                       # Number of loads inserted to the mem dependence unit. (Count)
system.cpu.MemDepUnit__3.insertedStores             0                       # Number of stores inserted to the mem dependence unit. (Count)
system.cpu.MemDepUnit__3.conflictingLoads            0                       # Number of conflicting loads. (Count)
system.cpu.MemDepUnit__3.conflictingStores            0                       # Number of conflicting stores. (Count)
system.cpu.branchPred.lookups                 9271654                       # Number of BP lookups (Count)
system.cpu.branchPred.condPredicted           7440475                       # Number of conditional branches predicted (Count)
system.cpu.branchPred.condIncorrect            146604                       # Number of conditional branches incorrect (Count)
system.cpu.branchPred.BTBLookups              5189297                       # Number of BTB lookups (Count)
system.cpu.branchPred.BTBHits                 5143210                       # Number of BTB hits (Count)
system.cpu.branchPred.BTBHitRatio            0.991119                       # BTB Hit Ratio (Ratio)
system.cpu.branchPred.RASUsed                  533813                       # Number of times the RAS was used to get a target. (Count)
system.cpu.branchPred.RASIncorrect                  2                       # Number of incorrect RAS predictions. (Count)
system.cpu.branchPred.indirectLookups          109697                       # Number of indirect predictor lookups. (Count)
system.cpu.branchPred.indirectHits             108770                       # Number of indirect target hits. (Count)
system.cpu.branchPred.indirectMisses              927                       # Number of indirect misses. (Count)
system.cpu.branchPred.indirectMispredicted          180                       # Number of mispredicted indirect branches. (Count)
system.cpu.commit.commitSquashedInsts         3765177                       # The number of squashed insts skipped by commit (Count)
system.cpu.commit.commitNonSpecStalls              18                       # The number of times commit has been forced to stall to communicate backwards (Count)
system.cpu.commit.branchMispredicts            138073                       # The number of times a branch was mispredicted (Count)
system.cpu.commit.numCommittedDist::samples     20068136                       # Number of insts commited each cycle (Count)
system.cpu.commit.numCommittedDist::mean     3.440119                       # Number of insts commited each cycle (Count)
system.cpu.commit.numCommittedDist::stdev     2.911614                       # Number of insts commited each cycle (Count)
system.cpu.commit.numCommittedDist::underflows            0      0.00%      0.00% # Number of insts commited each cycle (Count)
system.cpu.commit.numCommittedDist::0         3657147     18.22%     18.22% # Number of insts commited each cycle (Count)
system.cpu.commit.numCommittedDist::1         3106769     15.48%     33.70% # Number of insts commited each cycle (Count)
system.cpu.commit.numCommittedDist::2         2389048     11.90%     45.61% # Number of insts commited each cycle (Count)
system.cpu.commit.numCommittedDist::3         3189467     15.89%     61.50% # Number of insts commited each cycle (Count)
system.cpu.commit.numCommittedDist::4         1683123      8.39%     69.89% # Number of insts commited each cycle (Count)
system.cpu.commit.numCommittedDist::5          695107      3.46%     73.35% # Number of insts commited each cycle (Count)
system.cpu.commit.numCommittedDist::6          386390      1.93%     75.28% # Number of insts commited each cycle (Count)
system.cpu.commit.numCommittedDist::7          631534      3.15%     78.43% # Number of insts commited each cycle (Count)
system.cpu.commit.numCommittedDist::8         4329551     21.57%    100.00% # Number of insts commited each cycle (Count)
system.cpu.commit.numCommittedDist::overflows            0      0.00%    100.00% # Number of insts commited each cycle (Count)
system.cpu.commit.numCommittedDist::min_value            0                       # Number of insts commited each cycle (Count)
system.cpu.commit.numCommittedDist::max_value            8                       # Number of insts commited each cycle (Count)
system.cpu.commit.numCommittedDist::total     20068136                       # Number of insts commited each cycle (Count)
system.cpu.commit.instsCommitted             34932178                       # Number of instructions committed (Count)
system.cpu.commit.opsCommitted               69036779                       # Number of ops (including micro ops) committed (Count)
system.cpu.commit.memRefs                    12465518                       # Number of memory references committed (Count)
system.cpu.commit.loads                       7353093                       # Number of loads committed (Count)
system.cpu.commit.amos                              0                       # Number of atomic instructions committed (Count)
system.cpu.commit.membars                          12                       # Number of memory barriers committed (Count)
system.cpu.commit.branches                    8157686                       # Number of branches committed (Count)
system.cpu.commit.vectorInstructions                0                       # Number of committed Vector instructions. (Count)
system.cpu.commit.floating                    2719796                       # Number of committed floating point instructions. (Count)
system.cpu.commit.integer                    65681969                       # Number of committed integer instructions. (Count)
system.cpu.commit.functionCalls                491730                       # Number of function calls committed. (Count)
system.cpu.commit.committedInstType_0::No_OpClass       850896      1.23%      1.23% # Class of committed instruction (Count)
system.cpu.commit.committedInstType_0::IntAlu     53144293     76.98%     78.21% # Class of committed instruction (Count)
system.cpu.commit.committedInstType_0::IntMult        89549      0.13%     78.34% # Class of committed instruction (Count)
system.cpu.commit.committedInstType_0::IntDiv       882475      1.28%     79.62% # Class of committed instruction (Count)
system.cpu.commit.committedInstType_0::FloatAdd       360603      0.52%     80.14% # Class of committed instruction (Count)
system.cpu.commit.committedInstType_0::FloatCmp            0      0.00%     80.14% # Class of committed instruction (Count)
system.cpu.commit.committedInstType_0::FloatCvt            0      0.00%     80.14% # Class of committed instruction (Count)
system.cpu.commit.committedInstType_0::FloatMult            0      0.00%     80.14% # Class of committed instruction (Count)
system.cpu.commit.committedInstType_0::FloatMultAcc            0      0.00%     80.14% # Class of committed instruction (Count)
system.cpu.commit.committedInstType_0::FloatDiv            0      0.00%     80.14% # Class of committed instruction (Count)
system.cpu.commit.committedInstType_0::FloatMisc            0      0.00%     80.14% # Class of committed instruction (Count)
system.cpu.commit.committedInstType_0::FloatSqrt            0      0.00%     80.14% # Class of committed instruction (Count)
system.cpu.commit.committedInstType_0::SimdAdd            0      0.00%     80.14% # Class of committed instruction (Count)
system.cpu.commit.committedInstType_0::SimdAddAcc            0      0.00%     80.14% # Class of committed instruction (Count)
system.cpu.commit.committedInstType_0::SimdAlu       279104      0.40%     80.55% # Class of committed instruction (Count)
system.cpu.commit.committedInstType_0::SimdCmp          336      0.00%     80.55% # Class of committed instruction (Count)
system.cpu.commit.committedInstType_0::SimdCvt       164462      0.24%     80.79% # Class of committed instruction (Count)
system.cpu.commit.committedInstType_0::SimdMisc       242487      0.35%     81.14% # Class of committed instruction (Count)
system.cpu.commit.committedInstType_0::SimdMult            0      0.00%     81.14% # Class of committed instruction (Count)
system.cpu.commit.committedInstType_0::SimdMultAcc            0      0.00%     81.14% # Class of committed instruction (Count)
system.cpu.commit.committedInstType_0::SimdShift            0      0.00%     81.14% # Class of committed instruction (Count)
system.cpu.commit.committedInstType_0::SimdShiftAcc            0      0.00%     81.14% # Class of committed instruction (Count)
system.cpu.commit.committedInstType_0::SimdDiv            0      0.00%     81.14% # Class of committed instruction (Count)
system.cpu.commit.committedInstType_0::SimdSqrt            0      0.00%     81.14% # Class of committed instruction (Count)
system.cpu.commit.committedInstType_0::SimdFloatAdd       278528      0.40%     81.54% # Class of committed instruction (Count)
system.cpu.commit.committedInstType_0::SimdFloatAlu            0      0.00%     81.54% # Class of committed instruction (Count)
system.cpu.commit.committedInstType_0::SimdFloatCmp            0      0.00%     81.54% # Class of committed instruction (Count)
system.cpu.commit.committedInstType_0::SimdFloatCvt        16384      0.02%     81.56% # Class of committed instruction (Count)
system.cpu.commit.committedInstType_0::SimdFloatDiv            0      0.00%     81.56% # Class of committed instruction (Count)
system.cpu.commit.committedInstType_0::SimdFloatMisc            0      0.00%     81.56% # Class of committed instruction (Count)
system.cpu.commit.committedInstType_0::SimdFloatMult       262144      0.38%     81.94% # Class of committed instruction (Count)
system.cpu.commit.committedInstType_0::SimdFloatMultAcc            0      0.00%     81.94% # Class of committed instruction (Count)
system.cpu.commit.committedInstType_0::SimdFloatSqrt            0      0.00%     81.94% # Class of committed instruction (Count)
system.cpu.commit.committedInstType_0::SimdReduceAdd            0      0.00%     81.94% # Class of committed instruction (Count)
system.cpu.commit.committedInstType_0::SimdReduceAlu            0      0.00%     81.94% # Class of committed instruction (Count)
system.cpu.commit.committedInstType_0::SimdReduceCmp            0      0.00%     81.94% # Class of committed instruction (Count)
system.cpu.commit.committedInstType_0::SimdFloatReduceAdd            0      0.00%     81.94% # Class of committed instruction (Count)
system.cpu.commit.committedInstType_0::SimdFloatReduceCmp            0      0.00%     81.94% # Class of committed instruction (Count)
system.cpu.commit.committedInstType_0::SimdAes            0      0.00%     81.94% # Class of committed instruction (Count)
system.cpu.commit.committedInstType_0::SimdAesMix            0      0.00%     81.94% # Class of committed instruction (Count)
system.cpu.commit.committedInstType_0::SimdSha1Hash            0      0.00%     81.94% # Class of committed instruction (Count)
system.cpu.commit.committedInstType_0::SimdSha1Hash2            0      0.00%     81.94% # Class of committed instruction (Count)
system.cpu.commit.committedInstType_0::SimdSha256Hash            0      0.00%     81.94% # Class of committed instruction (Count)
system.cpu.commit.committedInstType_0::SimdSha256Hash2            0      0.00%     81.94% # Class of committed instruction (Count)
system.cpu.commit.committedInstType_0::SimdShaSigma2            0      0.00%     81.94% # Class of committed instruction (Count)
system.cpu.commit.committedInstType_0::SimdShaSigma3            0      0.00%     81.94% # Class of committed instruction (Count)
system.cpu.commit.committedInstType_0::SimdPredAlu            0      0.00%     81.94% # Class of committed instruction (Count)
system.cpu.commit.committedInstType_0::MemRead      6758208      9.79%     91.73% # Class of committed instruction (Count)
system.cpu.commit.committedInstType_0::MemWrite      4632678      6.71%     98.44% # Class of committed instruction (Count)
system.cpu.commit.committedInstType_0::FloatMemRead       594885      0.86%     99.31% # Class of committed instruction (Count)
system.cpu.commit.committedInstType_0::FloatMemWrite       479747      0.69%    100.00% # Class of committed instruction (Count)
system.cpu.commit.committedInstType_0::IprAccess            0      0.00%    100.00% # Class of committed instruction (Count)
system.cpu.commit.committedInstType_0::InstPrefetch            0      0.00%    100.00% # Class of committed instruction (Count)
system.cpu.commit.committedInstType_0::total     69036779                       # Class of committed instruction (Count)
system.cpu.commit.commitEligibleSamples       4329551                       # number cycles where commit BW limit reached (Cycle)
system.cpu.dcache.demandHits::cpu.data       11748337                       # number of demand (read+write) hits (Count)
system.cpu.dcache.demandHits::total          11748337                       # number of demand (read+write) hits (Count)
system.cpu.dcache.overallHits::cpu.data      11748337                       # number of overall hits (Count)
system.cpu.dcache.overallHits::total         11748337                       # number of overall hits (Count)
system.cpu.dcache.demandMisses::cpu.data        20417                       # number of demand (read+write) misses (Count)
system.cpu.dcache.demandMisses::total           20417                       # number of demand (read+write) misses (Count)
system.cpu.dcache.overallMisses::cpu.data        20417                       # number of overall misses (Count)
system.cpu.dcache.overallMisses::total          20417                       # number of overall misses (Count)
system.cpu.dcache.demandMissLatency::cpu.data   1230940497                       # number of demand (read+write) miss ticks (Tick)
system.cpu.dcache.demandMissLatency::total   1230940497                       # number of demand (read+write) miss ticks (Tick)
system.cpu.dcache.overallMissLatency::cpu.data   1230940497                       # number of overall miss ticks (Tick)
system.cpu.dcache.overallMissLatency::total   1230940497                       # number of overall miss ticks (Tick)
system.cpu.dcache.demandAccesses::cpu.data     11768754                       # number of demand (read+write) accesses (Count)
system.cpu.dcache.demandAccesses::total      11768754                       # number of demand (read+write) accesses (Count)
system.cpu.dcache.overallAccesses::cpu.data     11768754                       # number of overall (read+write) accesses (Count)
system.cpu.dcache.overallAccesses::total     11768754                       # number of overall (read+write) accesses (Count)
system.cpu.dcache.demandMissRate::cpu.data     0.001735                       # miss rate for demand accesses (Ratio)
system.cpu.dcache.demandMissRate::total      0.001735                       # miss rate for demand accesses (Ratio)
system.cpu.dcache.overallMissRate::cpu.data     0.001735                       # miss rate for overall accesses (Ratio)
system.cpu.dcache.overallMissRate::total     0.001735                       # miss rate for overall accesses (Ratio)
system.cpu.dcache.demandAvgMissLatency::cpu.data 60289.978792                       # average overall miss latency ((Cycle/Count))
system.cpu.dcache.demandAvgMissLatency::total 60289.978792                       # average overall miss latency ((Cycle/Count))
system.cpu.dcache.overallAvgMissLatency::cpu.data 60289.978792                       # average overall miss latency ((Cycle/Count))
system.cpu.dcache.overallAvgMissLatency::total 60289.978792                       # average overall miss latency ((Cycle/Count))
system.cpu.dcache.blockedCycles::no_mshrs         7293                       # number of cycles access was blocked (Cycle)
system.cpu.dcache.blockedCycles::no_targets            0                       # number of cycles access was blocked (Cycle)
system.cpu.dcache.blockedCauses::no_mshrs           84                       # number of times access was blocked (Count)
system.cpu.dcache.blockedCauses::no_targets            0                       # number of times access was blocked (Count)
system.cpu.dcache.avgBlocked::no_mshrs      86.821429                       # average number of cycles each access was blocked ((Cycle/Count))
system.cpu.dcache.avgBlocked::no_targets          nan                       # average number of cycles each access was blocked ((Cycle/Count))
system.cpu.dcache.writebacks::writebacks         5565                       # number of writebacks (Count)
system.cpu.dcache.writebacks::total              5565                       # number of writebacks (Count)
system.cpu.dcache.demandMshrHits::cpu.data        12010                       # number of demand (read+write) MSHR hits (Count)
system.cpu.dcache.demandMshrHits::total         12010                       # number of demand (read+write) MSHR hits (Count)
system.cpu.dcache.overallMshrHits::cpu.data        12010                       # number of overall MSHR hits (Count)
system.cpu.dcache.overallMshrHits::total        12010                       # number of overall MSHR hits (Count)
system.cpu.dcache.demandMshrMisses::cpu.data         8407                       # number of demand (read+write) MSHR misses (Count)
system.cpu.dcache.demandMshrMisses::total         8407                       # number of demand (read+write) MSHR misses (Count)
system.cpu.dcache.overallMshrMisses::cpu.data         8407                       # number of overall MSHR misses (Count)
system.cpu.dcache.overallMshrMisses::total         8407                       # number of overall MSHR misses (Count)
system.cpu.dcache.demandMshrMissLatency::cpu.data    497150998                       # number of demand (read+write) MSHR miss ticks (Tick)
system.cpu.dcache.demandMshrMissLatency::total    497150998                       # number of demand (read+write) MSHR miss ticks (Tick)
system.cpu.dcache.overallMshrMissLatency::cpu.data    497150998                       # number of overall MSHR miss ticks (Tick)
system.cpu.dcache.overallMshrMissLatency::total    497150998                       # number of overall MSHR miss ticks (Tick)
system.cpu.dcache.demandMshrMissRate::cpu.data     0.000714                       # mshr miss ratio for demand accesses (Ratio)
system.cpu.dcache.demandMshrMissRate::total     0.000714                       # mshr miss ratio for demand accesses (Ratio)
system.cpu.dcache.overallMshrMissRate::cpu.data     0.000714                       # mshr miss ratio for overall accesses (Ratio)
system.cpu.dcache.overallMshrMissRate::total     0.000714                       # mshr miss ratio for overall accesses (Ratio)
system.cpu.dcache.demandAvgMshrMissLatency::cpu.data 59135.363150                       # average overall mshr miss latency ((Cycle/Count))
system.cpu.dcache.demandAvgMshrMissLatency::total 59135.363150                       # average overall mshr miss latency ((Cycle/Count))
system.cpu.dcache.overallAvgMshrMissLatency::cpu.data 59135.363150                       # average overall mshr miss latency ((Cycle/Count))
system.cpu.dcache.overallAvgMshrMissLatency::total 59135.363150                       # average overall mshr miss latency ((Cycle/Count))
system.cpu.dcache.replacements                   6358                       # number of replacements (Count)
system.cpu.dcache.ReadReq.hits::cpu.data      6638737                       # number of ReadReq hits (Count)
system.cpu.dcache.ReadReq.hits::total         6638737                       # number of ReadReq hits (Count)
system.cpu.dcache.ReadReq.misses::cpu.data        17591                       # number of ReadReq misses (Count)
system.cpu.dcache.ReadReq.misses::total         17591                       # number of ReadReq misses (Count)
system.cpu.dcache.ReadReq.missLatency::cpu.data   1068714000                       # number of ReadReq miss ticks (Tick)
system.cpu.dcache.ReadReq.missLatency::total   1068714000                       # number of ReadReq miss ticks (Tick)
system.cpu.dcache.ReadReq.accesses::cpu.data      6656328                       # number of ReadReq accesses(hits+misses) (Count)
system.cpu.dcache.ReadReq.accesses::total      6656328                       # number of ReadReq accesses(hits+misses) (Count)
system.cpu.dcache.ReadReq.missRate::cpu.data     0.002643                       # miss rate for ReadReq accesses (Ratio)
system.cpu.dcache.ReadReq.missRate::total     0.002643                       # miss rate for ReadReq accesses (Ratio)
system.cpu.dcache.ReadReq.avgMissLatency::cpu.data 60753.453471                       # average ReadReq miss latency ((Tick/Count))
system.cpu.dcache.ReadReq.avgMissLatency::total 60753.453471                       # average ReadReq miss latency ((Tick/Count))
system.cpu.dcache.ReadReq.mshrHits::cpu.data        12008                       # number of ReadReq MSHR hits (Count)
system.cpu.dcache.ReadReq.mshrHits::total        12008                       # number of ReadReq MSHR hits (Count)
system.cpu.dcache.ReadReq.mshrMisses::cpu.data         5583                       # number of ReadReq MSHR misses (Count)
system.cpu.dcache.ReadReq.mshrMisses::total         5583                       # number of ReadReq MSHR misses (Count)
system.cpu.dcache.ReadReq.mshrMissLatency::cpu.data    337798500                       # number of ReadReq MSHR miss ticks (Tick)
system.cpu.dcache.ReadReq.mshrMissLatency::total    337798500                       # number of ReadReq MSHR miss ticks (Tick)
system.cpu.dcache.ReadReq.mshrMissRate::cpu.data     0.000839                       # mshr miss rate for ReadReq accesses (Ratio)
system.cpu.dcache.ReadReq.mshrMissRate::total     0.000839                       # mshr miss rate for ReadReq accesses (Ratio)
system.cpu.dcache.ReadReq.avgMshrMissLatency::cpu.data 60504.836110                       # average ReadReq mshr miss latency ((Tick/Count))
system.cpu.dcache.ReadReq.avgMshrMissLatency::total 60504.836110                       # average ReadReq mshr miss latency ((Tick/Count))
system.cpu.dcache.WriteReq.hits::cpu.data      5109600                       # number of WriteReq hits (Count)
system.cpu.dcache.WriteReq.hits::total        5109600                       # number of WriteReq hits (Count)
system.cpu.dcache.WriteReq.misses::cpu.data         2826                       # number of WriteReq misses (Count)
system.cpu.dcache.WriteReq.misses::total         2826                       # number of WriteReq misses (Count)
system.cpu.dcache.WriteReq.missLatency::cpu.data    162226497                       # number of WriteReq miss ticks (Tick)
system.cpu.dcache.WriteReq.missLatency::total    162226497                       # number of WriteReq miss ticks (Tick)
system.cpu.dcache.WriteReq.accesses::cpu.data      5112426                       # number of WriteReq accesses(hits+misses) (Count)
system.cpu.dcache.WriteReq.accesses::total      5112426                       # number of WriteReq accesses(hits+misses) (Count)
system.cpu.dcache.WriteReq.missRate::cpu.data     0.000553                       # miss rate for WriteReq accesses (Ratio)
system.cpu.dcache.WriteReq.missRate::total     0.000553                       # miss rate for WriteReq accesses (Ratio)
system.cpu.dcache.WriteReq.avgMissLatency::cpu.data 57404.988323                       # average WriteReq miss latency ((Tick/Count))
system.cpu.dcache.WriteReq.avgMissLatency::total 57404.988323                       # average WriteReq miss latency ((Tick/Count))
system.cpu.dcache.WriteReq.mshrHits::cpu.data            2                       # number of WriteReq MSHR hits (Count)
system.cpu.dcache.WriteReq.mshrHits::total            2                       # number of WriteReq MSHR hits (Count)
system.cpu.dcache.WriteReq.mshrMisses::cpu.data         2824                       # number of WriteReq MSHR misses (Count)
system.cpu.dcache.WriteReq.mshrMisses::total         2824                       # number of WriteReq MSHR misses (Count)
system.cpu.dcache.WriteReq.mshrMissLatency::cpu.data    159352498                       # number of WriteReq MSHR miss ticks (Tick)
system.cpu.dcache.WriteReq.mshrMissLatency::total    159352498                       # number of WriteReq MSHR miss ticks (Tick)
system.cpu.dcache.WriteReq.mshrMissRate::cpu.data     0.000552                       # mshr miss rate for WriteReq accesses (Ratio)
system.cpu.dcache.WriteReq.mshrMissRate::total     0.000552                       # mshr miss rate for WriteReq accesses (Ratio)
system.cpu.dcache.WriteReq.avgMshrMissLatency::cpu.data 56427.938385                       # average WriteReq mshr miss latency ((Tick/Count))
system.cpu.dcache.WriteReq.avgMshrMissLatency::total 56427.938385                       # average WriteReq mshr miss latency ((Tick/Count))
system.cpu.dcache.power_state.pwrStateResidencyTicks::UNDEFINED  10423504000                       # Cumulative time (in ticks) in various power states (Tick)
system.cpu.dcache.tags.tagsInUse          2021.471274                       # Average ticks per tags in use ((Tick/Count))
system.cpu.dcache.tags.totalRefs             11756743                       # Total number of references to valid blocks. (Count)
system.cpu.dcache.tags.sampledRefs               8406                       # Sample count of references to valid blocks. (Count)
system.cpu.dcache.tags.avgRefs            1398.613252                       # Average number of references to valid blocks. ((Count/Count))
system.cpu.dcache.tags.warmupTick              145000                       # The tick when the warmup percentage was hit. (Tick)
system.cpu.dcache.tags.occupancies::cpu.data  2021.471274                       # Average occupied blocks per tick, per requestor ((Count/Tick))
system.cpu.dcache.tags.avgOccs::cpu.data     0.987047                       # Average percentage of cache occupancy ((Ratio/Tick))
system.cpu.dcache.tags.avgOccs::total        0.987047                       # Average percentage of cache occupancy ((Ratio/Tick))
system.cpu.dcache.tags.occupanciesTaskId::1024         2048                       # Occupied blocks per task id (Count)
system.cpu.dcache.tags.ageTaskId_1024::0           89                       # Occupied blocks per task id, per block age (Count)
system.cpu.dcache.tags.ageTaskId_1024::1          485                       # Occupied blocks per task id, per block age (Count)
system.cpu.dcache.tags.ageTaskId_1024::2          870                       # Occupied blocks per task id, per block age (Count)
system.cpu.dcache.tags.ageTaskId_1024::3          584                       # Occupied blocks per task id, per block age (Count)
system.cpu.dcache.tags.ageTaskId_1024::4           20                       # Occupied blocks per task id, per block age (Count)
system.cpu.dcache.tags.ratioOccsTaskId::1024            1                       # Ratio of occupied blocks and all blocks, per task id (Ratio)
system.cpu.dcache.tags.tagAccesses           23545914                       # Number of tag accesses (Count)
system.cpu.dcache.tags.dataAccesses          23545914                       # Number of data accesses (Count)
system.cpu.dcache.tags.power_state.pwrStateResidencyTicks::UNDEFINED  10423504000                       # Cumulative time (in ticks) in various power states (Tick)
system.cpu.decode.idleCycles                  5260783                       # Number of cycles decode is idle (Cycle)
system.cpu.decode.blockedCycles               3556061                       # Number of cycles decode is blocked (Cycle)
system.cpu.decode.runCycles                  10558475                       # Number of cycles decode is running (Cycle)
system.cpu.decode.unblockCycles               1099735                       # Number of cycles decode is unblocking (Cycle)
system.cpu.decode.squashCycles                 142516                       # Number of cycles decode is squashing (Cycle)
system.cpu.decode.branchResolved              4859608                       # Number of times decode resolved a branch (Count)
system.cpu.decode.branchMispred                  8648                       # Number of times decode detected a branch misprediction (Count)
system.cpu.decode.decodedInsts               74664529                       # Number of instructions handled by decode (Count)
system.cpu.decode.squashedInsts                 39084                       # Number of squashed instructions handled by decode (Count)
system.cpu.dtb_walker_cache.blockedCycles::no_mshrs            0                       # number of cycles access was blocked (Cycle)
system.cpu.dtb_walker_cache.blockedCycles::no_targets            0                       # number of cycles access was blocked (Cycle)
system.cpu.dtb_walker_cache.blockedCauses::no_mshrs            0                       # number of times access was blocked (Count)
system.cpu.dtb_walker_cache.blockedCauses::no_targets            0                       # number of times access was blocked (Count)
system.cpu.dtb_walker_cache.avgBlocked::no_mshrs          nan                       # average number of cycles each access was blocked ((Cycle/Count))
system.cpu.dtb_walker_cache.avgBlocked::no_targets          nan                       # average number of cycles each access was blocked ((Cycle/Count))
system.cpu.dtb_walker_cache.replacements            0                       # number of replacements (Count)
system.cpu.dtb_walker_cache.power_state.pwrStateResidencyTicks::UNDEFINED  10423504000                       # Cumulative time (in ticks) in various power states (Tick)
system.cpu.dtb_walker_cache.tags.tagsInUse            0                       # Average ticks per tags in use ((Tick/Count))
system.cpu.dtb_walker_cache.tags.totalRefs            0                       # Total number of references to valid blocks. (Count)
system.cpu.dtb_walker_cache.tags.sampledRefs            0                       # Sample count of references to valid blocks. (Count)
system.cpu.dtb_walker_cache.tags.avgRefs          nan                       # Average number of references to valid blocks. ((Count/Count))
system.cpu.dtb_walker_cache.tags.warmupTick            0                       # The tick when the warmup percentage was hit. (Tick)
system.cpu.dtb_walker_cache.tags.tagAccesses            0                       # Number of tag accesses (Count)
system.cpu.dtb_walker_cache.tags.dataAccesses            0                       # Number of data accesses (Count)
system.cpu.dtb_walker_cache.tags.power_state.pwrStateResidencyTicks::UNDEFINED  10423504000                       # Cumulative time (in ticks) in various power states (Tick)
system.cpu.fetch.icacheStallCycles            5652751                       # Number of cycles fetch is stalled on an Icache miss (Cycle)
system.cpu.fetch.insts                       37869111                       # Number of instructions fetch has processed (Count)
system.cpu.fetch.branches                     9271654                       # Number of branches that fetch encountered (Count)
system.cpu.fetch.predictedBranches            5785793                       # Number of branches that fetch has predicted taken (Count)
system.cpu.fetch.cycles                      14812781                       # Number of cycles fetch has run and was not squashing or blocked (Cycle)
system.cpu.fetch.squashCycles                  302308                       # Number of cycles fetch has spent squashing (Cycle)
system.cpu.fetch.miscStallCycles                  121                       # Number of cycles fetch has spent waiting on interrupts, or bad addresses, or out of MSHRs (Cycle)
system.cpu.fetch.pendingTrapStallCycles           709                       # Number of stall cycles due to pending traps (Cycle)
system.cpu.fetch.pendingQuiesceStallCycles            1                       # Number of stall cycles due to pending quiesce instructions (Cycle)
system.cpu.fetch.icacheWaitRetryStallCycles           53                       # Number of stall cycles due to full MSHR (Cycle)
system.cpu.fetch.cacheLines                   4780137                       # Number of cache lines fetched (Count)
system.cpu.fetch.icacheSquashes                 35123                       # Number of outstanding Icache misses that were squashed (Count)
system.cpu.fetch.nisnDist::samples           20617570                       # Number of instructions fetched each cycle (Total) (Count)
system.cpu.fetch.nisnDist::mean              3.711066                       # Number of instructions fetched each cycle (Total) (Count)
system.cpu.fetch.nisnDist::stdev             3.555335                       # Number of instructions fetched each cycle (Total) (Count)
system.cpu.fetch.nisnDist::underflows               0      0.00%      0.00% # Number of instructions fetched each cycle (Total) (Count)
system.cpu.fetch.nisnDist::0                  8247087     40.00%     40.00% # Number of instructions fetched each cycle (Total) (Count)
system.cpu.fetch.nisnDist::1                   855461      4.15%     44.15% # Number of instructions fetched each cycle (Total) (Count)
system.cpu.fetch.nisnDist::2                   689867      3.35%     47.50% # Number of instructions fetched each cycle (Total) (Count)
system.cpu.fetch.nisnDist::3                   562730      2.73%     50.22% # Number of instructions fetched each cycle (Total) (Count)
system.cpu.fetch.nisnDist::4                  1235629      5.99%     56.22% # Number of instructions fetched each cycle (Total) (Count)
system.cpu.fetch.nisnDist::5                   987569      4.79%     61.01% # Number of instructions fetched each cycle (Total) (Count)
system.cpu.fetch.nisnDist::6                   488310      2.37%     63.38% # Number of instructions fetched each cycle (Total) (Count)
system.cpu.fetch.nisnDist::7                   627788      3.04%     66.42% # Number of instructions fetched each cycle (Total) (Count)
system.cpu.fetch.nisnDist::8                  6923129     33.58%    100.00% # Number of instructions fetched each cycle (Total) (Count)
system.cpu.fetch.nisnDist::overflows                0      0.00%    100.00% # Number of instructions fetched each cycle (Total) (Count)
system.cpu.fetch.nisnDist::min_value                0                       # Number of instructions fetched each cycle (Total) (Count)
system.cpu.fetch.nisnDist::max_value                8                       # Number of instructions fetched each cycle (Total) (Count)
system.cpu.fetch.nisnDist::total             20617570                       # Number of instructions fetched each cycle (Total) (Count)
system.cpu.fetch.branchRate                  0.444747                       # Number of branch fetches per cycle (Ratio)
system.cpu.fetch.rate                        1.816525                       # Number of inst fetches per cycle ((Count/Cycle))
system.cpu.icache.demandHits::cpu.inst        4744728                       # number of demand (read+write) hits (Count)
system.cpu.icache.demandHits::total           4744728                       # number of demand (read+write) hits (Count)
system.cpu.icache.overallHits::cpu.inst       4744728                       # number of overall hits (Count)
system.cpu.icache.overallHits::total          4744728                       # number of overall hits (Count)
system.cpu.icache.demandMisses::cpu.inst        35409                       # number of demand (read+write) misses (Count)
system.cpu.icache.demandMisses::total           35409                       # number of demand (read+write) misses (Count)
system.cpu.icache.overallMisses::cpu.inst        35409                       # number of overall misses (Count)
system.cpu.icache.overallMisses::total          35409                       # number of overall misses (Count)
system.cpu.icache.demandMissLatency::cpu.inst    722669499                       # number of demand (read+write) miss ticks (Tick)
system.cpu.icache.demandMissLatency::total    722669499                       # number of demand (read+write) miss ticks (Tick)
system.cpu.icache.overallMissLatency::cpu.inst    722669499                       # number of overall miss ticks (Tick)
system.cpu.icache.overallMissLatency::total    722669499                       # number of overall miss ticks (Tick)
system.cpu.icache.demandAccesses::cpu.inst      4780137                       # number of demand (read+write) accesses (Count)
system.cpu.icache.demandAccesses::total       4780137                       # number of demand (read+write) accesses (Count)
system.cpu.icache.overallAccesses::cpu.inst      4780137                       # number of overall (read+write) accesses (Count)
system.cpu.icache.overallAccesses::total      4780137                       # number of overall (read+write) accesses (Count)
system.cpu.icache.demandMissRate::cpu.inst     0.007408                       # miss rate for demand accesses (Ratio)
system.cpu.icache.demandMissRate::total      0.007408                       # miss rate for demand accesses (Ratio)
system.cpu.icache.overallMissRate::cpu.inst     0.007408                       # miss rate for overall accesses (Ratio)
system.cpu.icache.overallMissRate::total     0.007408                       # miss rate for overall accesses (Ratio)
system.cpu.icache.demandAvgMissLatency::cpu.inst 20409.203846                       # average overall miss latency ((Cycle/Count))
system.cpu.icache.demandAvgMissLatency::total 20409.203846                       # average overall miss latency ((Cycle/Count))
system.cpu.icache.overallAvgMissLatency::cpu.inst 20409.203846                       # average overall miss latency ((Cycle/Count))
system.cpu.icache.overallAvgMissLatency::total 20409.203846                       # average overall miss latency ((Cycle/Count))
system.cpu.icache.blockedCycles::no_mshrs          578                       # number of cycles access was blocked (Cycle)
system.cpu.icache.blockedCycles::no_targets            0                       # number of cycles access was blocked (Cycle)
system.cpu.icache.blockedCauses::no_mshrs            6                       # number of times access was blocked (Count)
system.cpu.icache.blockedCauses::no_targets            0                       # number of times access was blocked (Count)
system.cpu.icache.avgBlocked::no_mshrs      96.333333                       # average number of cycles each access was blocked ((Cycle/Count))
system.cpu.icache.avgBlocked::no_targets          nan                       # average number of cycles each access was blocked ((Cycle/Count))
system.cpu.icache.writebacks::writebacks        25173                       # number of writebacks (Count)
system.cpu.icache.writebacks::total             25173                       # number of writebacks (Count)
system.cpu.icache.demandMshrHits::cpu.inst         9746                       # number of demand (read+write) MSHR hits (Count)
system.cpu.icache.demandMshrHits::total          9746                       # number of demand (read+write) MSHR hits (Count)
system.cpu.icache.overallMshrHits::cpu.inst         9746                       # number of overall MSHR hits (Count)
system.cpu.icache.overallMshrHits::total         9746                       # number of overall MSHR hits (Count)
system.cpu.icache.demandMshrMisses::cpu.inst        25663                       # number of demand (read+write) MSHR misses (Count)
system.cpu.icache.demandMshrMisses::total        25663                       # number of demand (read+write) MSHR misses (Count)
system.cpu.icache.overallMshrMisses::cpu.inst        25663                       # number of overall MSHR misses (Count)
system.cpu.icache.overallMshrMisses::total        25663                       # number of overall MSHR misses (Count)
system.cpu.icache.demandMshrMissLatency::cpu.inst    592629999                       # number of demand (read+write) MSHR miss ticks (Tick)
system.cpu.icache.demandMshrMissLatency::total    592629999                       # number of demand (read+write) MSHR miss ticks (Tick)
system.cpu.icache.overallMshrMissLatency::cpu.inst    592629999                       # number of overall MSHR miss ticks (Tick)
system.cpu.icache.overallMshrMissLatency::total    592629999                       # number of overall MSHR miss ticks (Tick)
system.cpu.icache.demandMshrMissRate::cpu.inst     0.005369                       # mshr miss ratio for demand accesses (Ratio)
system.cpu.icache.demandMshrMissRate::total     0.005369                       # mshr miss ratio for demand accesses (Ratio)
system.cpu.icache.overallMshrMissRate::cpu.inst     0.005369                       # mshr miss ratio for overall accesses (Ratio)
system.cpu.icache.overallMshrMissRate::total     0.005369                       # mshr miss ratio for overall accesses (Ratio)
system.cpu.icache.demandAvgMshrMissLatency::cpu.inst 23092.779449                       # average overall mshr miss latency ((Cycle/Count))
system.cpu.icache.demandAvgMshrMissLatency::total 23092.779449                       # average overall mshr miss latency ((Cycle/Count))
system.cpu.icache.overallAvgMshrMissLatency::cpu.inst 23092.779449                       # average overall mshr miss latency ((Cycle/Count))
system.cpu.icache.overallAvgMshrMissLatency::total 23092.779449                       # average overall mshr miss latency ((Cycle/Count))
system.cpu.icache.replacements                  25173                       # number of replacements (Count)
system.cpu.icache.ReadReq.hits::cpu.inst      4744728                       # number of ReadReq hits (Count)
system.cpu.icache.ReadReq.hits::total         4744728                       # number of ReadReq hits (Count)
system.cpu.icache.ReadReq.misses::cpu.inst        35409                       # number of ReadReq misses (Count)
system.cpu.icache.ReadReq.misses::total         35409                       # number of ReadReq misses (Count)
system.cpu.icache.ReadReq.missLatency::cpu.inst    722669499                       # number of ReadReq miss ticks (Tick)
system.cpu.icache.ReadReq.missLatency::total    722669499                       # number of ReadReq miss ticks (Tick)
system.cpu.icache.ReadReq.accesses::cpu.inst      4780137                       # number of ReadReq accesses(hits+misses) (Count)
system.cpu.icache.ReadReq.accesses::total      4780137                       # number of ReadReq accesses(hits+misses) (Count)
system.cpu.icache.ReadReq.missRate::cpu.inst     0.007408                       # miss rate for ReadReq accesses (Ratio)
system.cpu.icache.ReadReq.missRate::total     0.007408                       # miss rate for ReadReq accesses (Ratio)
system.cpu.icache.ReadReq.avgMissLatency::cpu.inst 20409.203846                       # average ReadReq miss latency ((Tick/Count))
system.cpu.icache.ReadReq.avgMissLatency::total 20409.203846                       # average ReadReq miss latency ((Tick/Count))
system.cpu.icache.ReadReq.mshrHits::cpu.inst         9746                       # number of ReadReq MSHR hits (Count)
system.cpu.icache.ReadReq.mshrHits::total         9746                       # number of ReadReq MSHR hits (Count)
system.cpu.icache.ReadReq.mshrMisses::cpu.inst        25663                       # number of ReadReq MSHR misses (Count)
system.cpu.icache.ReadReq.mshrMisses::total        25663                       # number of ReadReq MSHR misses (Count)
system.cpu.icache.ReadReq.mshrMissLatency::cpu.inst    592629999                       # number of ReadReq MSHR miss ticks (Tick)
system.cpu.icache.ReadReq.mshrMissLatency::total    592629999                       # number of ReadReq MSHR miss ticks (Tick)
system.cpu.icache.ReadReq.mshrMissRate::cpu.inst     0.005369                       # mshr miss rate for ReadReq accesses (Ratio)
system.cpu.icache.ReadReq.mshrMissRate::total     0.005369                       # mshr miss rate for ReadReq accesses (Ratio)
system.cpu.icache.ReadReq.avgMshrMissLatency::cpu.inst 23092.779449                       # average ReadReq mshr miss latency ((Tick/Count))
system.cpu.icache.ReadReq.avgMshrMissLatency::total 23092.779449                       # average ReadReq mshr miss latency ((Tick/Count))
system.cpu.icache.power_state.pwrStateResidencyTicks::UNDEFINED  10423504000                       # Cumulative time (in ticks) in various power states (Tick)
system.cpu.icache.tags.tagsInUse           449.391199                       # Average ticks per tags in use ((Tick/Count))
system.cpu.icache.tags.totalRefs              4770390                       # Total number of references to valid blocks. (Count)
system.cpu.icache.tags.sampledRefs              25662                       # Sample count of references to valid blocks. (Count)
system.cpu.icache.tags.avgRefs             185.893149                       # Average number of references to valid blocks. ((Count/Count))
system.cpu.icache.tags.warmupTick               77000                       # The tick when the warmup percentage was hit. (Tick)
system.cpu.icache.tags.occupancies::cpu.inst   449.391199                       # Average occupied blocks per tick, per requestor ((Count/Tick))
system.cpu.icache.tags.avgOccs::cpu.inst     0.877717                       # Average percentage of cache occupancy ((Ratio/Tick))
system.cpu.icache.tags.avgOccs::total        0.877717                       # Average percentage of cache occupancy ((Ratio/Tick))
system.cpu.icache.tags.occupanciesTaskId::1024          489                       # Occupied blocks per task id (Count)
system.cpu.icache.tags.ageTaskId_1024::0          121                       # Occupied blocks per task id, per block age (Count)
system.cpu.icache.tags.ageTaskId_1024::1           19                       # Occupied blocks per task id, per block age (Count)
system.cpu.icache.tags.ageTaskId_1024::3          177                       # Occupied blocks per task id, per block age (Count)
system.cpu.icache.tags.ageTaskId_1024::4          172                       # Occupied blocks per task id, per block age (Count)
system.cpu.icache.tags.ratioOccsTaskId::1024     0.955078                       # Ratio of occupied blocks and all blocks, per task id (Ratio)
system.cpu.icache.tags.tagAccesses            9585936                       # Number of tag accesses (Count)
system.cpu.icache.tags.dataAccesses           9585936                       # Number of data accesses (Count)
system.cpu.icache.tags.power_state.pwrStateResidencyTicks::UNDEFINED  10423504000                       # Cumulative time (in ticks) in various power states (Tick)
system.cpu.iew.idleCycles                           0                       # Number of cycles IEW is idle (Cycle)
system.cpu.iew.squashCycles                    142516                       # Number of cycles IEW is squashing (Cycle)
system.cpu.iew.blockCycles                     853608                       # Number of cycles IEW is blocking (Cycle)
system.cpu.iew.unblockCycles                   128932                       # Number of cycles IEW is unblocking (Cycle)
system.cpu.iew.dispatchedInsts               73024393                       # Number of instructions dispatched to IQ (Count)
system.cpu.iew.dispSquashedInsts                39660                       # Number of squashed instructions skipped by dispatch (Count)
system.cpu.iew.dispLoadInsts                  7656100                       # Number of dispatched load instructions (Count)
system.cpu.iew.dispStoreInsts                 5303107                       # Number of dispatched store instructions (Count)
system.cpu.iew.dispNonSpecInsts                    17                       # Number of dispatched non-speculative instructions (Count)
system.cpu.iew.iqFullEvents                     15162                       # Number of times the IQ has become full, causing a stall (Count)
system.cpu.iew.lsqFullEvents                   108573                       # Number of times the LSQ has become full, causing a stall (Count)
system.cpu.iew.memOrderViolationEvents            328                       # Number of memory order violations (Count)
system.cpu.iew.predictedTakenIncorrect          69427                       # Number of branches that were predicted taken incorrectly (Count)
system.cpu.iew.predictedNotTakenIncorrect        86514                       # Number of branches that were predicted not taken incorrectly (Count)
system.cpu.iew.branchMispredicts               155941                       # Number of branch mispredicts detected at execute (Count)
system.cpu.iew.instsToCommit                 71269295                       # Cumulative count of insts sent to commit (Count)
system.cpu.iew.writebackCount                71211365                       # Cumulative count of insts written-back (Count)
system.cpu.iew.producerInst                  49749170                       # Number of instructions producing a value (Count)
system.cpu.iew.consumerInst                  89505211                       # Number of instructions consuming a value (Count)
system.cpu.iew.wbRate                        3.415903                       # Insts written-back per cycle ((Count/Cycle))
system.cpu.iew.wbFanout                      0.555824                       # Average fanout of values written-back ((Count/Count))
system.cpu.interrupts.clk_domain.clock           8000                       # Clock period in ticks (Tick)
system.cpu.itb_walker_cache.blockedCycles::no_mshrs            0                       # number of cycles access was blocked (Cycle)
system.cpu.itb_walker_cache.blockedCycles::no_targets            0                       # number of cycles access was blocked (Cycle)
system.cpu.itb_walker_cache.blockedCauses::no_mshrs            0                       # number of times access was blocked (Count)
system.cpu.itb_walker_cache.blockedCauses::no_targets            0                       # number of times access was blocked (Count)
system.cpu.itb_walker_cache.avgBlocked::no_mshrs          nan                       # average number of cycles each access was blocked ((Cycle/Count))
system.cpu.itb_walker_cache.avgBlocked::no_targets          nan                       # average number of cycles each access was blocked ((Cycle/Count))
system.cpu.itb_walker_cache.replacements            0                       # number of replacements (Count)
system.cpu.itb_walker_cache.power_state.pwrStateResidencyTicks::UNDEFINED  10423504000                       # Cumulative time (in ticks) in various power states (Tick)
system.cpu.itb_walker_cache.tags.tagsInUse            0                       # Average ticks per tags in use ((Tick/Count))
system.cpu.itb_walker_cache.tags.totalRefs            0                       # Total number of references to valid blocks. (Count)
system.cpu.itb_walker_cache.tags.sampledRefs            0                       # Sample count of references to valid blocks. (Count)
system.cpu.itb_walker_cache.tags.avgRefs          nan                       # Average number of references to valid blocks. ((Count/Count))
system.cpu.itb_walker_cache.tags.warmupTick            0                       # The tick when the warmup percentage was hit. (Tick)
system.cpu.itb_walker_cache.tags.tagAccesses            0                       # Number of tag accesses (Count)
system.cpu.itb_walker_cache.tags.dataAccesses            0                       # Number of data accesses (Count)
system.cpu.itb_walker_cache.tags.power_state.pwrStateResidencyTicks::UNDEFINED  10423504000                       # Cumulative time (in ticks) in various power states (Tick)
system.cpu.lsq0.forwLoads                      940514                       # Number of loads that had data forwarded from stores (Count)
system.cpu.lsq0.squashedLoads                  303007                       # Number of loads squashed (Count)
system.cpu.lsq0.ignoredResponses                   22                       # Number of memory responses ignored because the instruction is squashed (Count)
system.cpu.lsq0.memOrderViolation                 328                       # Number of memory ordering violations (Count)
system.cpu.lsq0.squashedStores                 190682                       # Number of stores squashed (Count)
system.cpu.lsq0.rescheduledLoads                    1                       # Number of loads that were rescheduled (Count)
system.cpu.lsq0.blockedByCache                     81                       # Number of times an access to memory failed due to the cache being blocked (Count)
system.cpu.lsq0.loadToUse::samples            7353093                       # Distribution of cycle latency between the first time a load is issued and its completion (Unspecified)
system.cpu.lsq0.loadToUse::mean              3.409523                       # Distribution of cycle latency between the first time a load is issued and its completion (Unspecified)
system.cpu.lsq0.loadToUse::stdev             6.692382                       # Distribution of cycle latency between the first time a load is issued and its completion (Unspecified)
system.cpu.lsq0.loadToUse::0-9                7335738     99.76%     99.76% # Distribution of cycle latency between the first time a load is issued and its completion (Unspecified)
system.cpu.lsq0.loadToUse::10-19                  114      0.00%     99.77% # Distribution of cycle latency between the first time a load is issued and its completion (Unspecified)
system.cpu.lsq0.loadToUse::20-29                   10      0.00%     99.77% # Distribution of cycle latency between the first time a load is issued and its completion (Unspecified)
system.cpu.lsq0.loadToUse::30-39                   13      0.00%     99.77% # Distribution of cycle latency between the first time a load is issued and its completion (Unspecified)
system.cpu.lsq0.loadToUse::40-49                   66      0.00%     99.77% # Distribution of cycle latency between the first time a load is issued and its completion (Unspecified)
system.cpu.lsq0.loadToUse::50-59                   19      0.00%     99.77% # Distribution of cycle latency between the first time a load is issued and its completion (Unspecified)
[...]
system.mem_ctrls.dram.bwWrite::total         34168932                       # Write bandwidth from this memory ((Byte/Second))
system.mem_ctrls.dram.bwTotal::writebacks     34168932                       # Total bandwidth to/from this memory ((Byte/Second))
system.mem_ctrls.dram.bwTotal::cpu.inst     157563906                       # Total bandwidth to/from this memory ((Byte/Second))
system.mem_ctrls.dram.bwTotal::cpu.data      51612586                       # Total bandwidth to/from this memory ((Byte/Second))
system.mem_ctrls.dram.bwTotal::total        243345424                       # Total bandwidth to/from this memory ((Byte/Second))
system.mem_ctrls.dram.readBursts                 9451                       # Number of DRAM read bursts (Count)
system.mem_ctrls.dram.writeBursts                6145                       # Number of DRAM write bursts (Count)
system.mem_ctrls.dram.perBankRdBursts::0          697                       # Per bank write bursts (Count)
system.mem_ctrls.dram.perBankRdBursts::1          700                       # Per bank write bursts (Count)
system.mem_ctrls.dram.perBankRdBursts::2          627                       # Per bank write bursts (Count)
system.mem_ctrls.dram.perBankRdBursts::3          617                       # Per bank write bursts (Count)
system.mem_ctrls.dram.perBankRdBursts::4          573                       # Per bank write bursts (Count)
system.mem_ctrls.dram.perBankRdBursts::5          623                       # Per bank write bursts (Count)
system.mem_ctrls.dram.perBankRdBursts::6          688                       # Per bank write bursts (Count)
system.mem_ctrls.dram.perBankRdBursts::7          582                       # Per bank write bursts (Count)
system.mem_ctrls.dram.perBankRdBursts::8          854                       # Per bank write bursts (Count)
system.mem_ctrls.dram.perBankRdBursts::9          583                       # Per bank write bursts (Count)
system.mem_ctrls.dram.perBankRdBursts::10          512                       # Per bank write bursts (Count)
system.mem_ctrls.dram.perBankRdBursts::11          362                       # Per bank write bursts (Count)
system.mem_ctrls.dram.perBankRdBursts::12          306                       # Per bank write bursts (Count)
system.mem_ctrls.dram.perBankRdBursts::13          559                       # Per bank write bursts (Count)
system.mem_ctrls.dram.perBankRdBursts::14          540                       # Per bank write bursts (Count)
system.mem_ctrls.dram.perBankRdBursts::15          628                       # Per bank write bursts (Count)
system.mem_ctrls.dram.perBankWrBursts::0          493                       # Per bank write bursts (Count)
system.mem_ctrls.dram.perBankWrBursts::1          451                       # Per bank write bursts (Count)
system.mem_ctrls.dram.perBankWrBursts::2          448                       # Per bank write bursts (Count)
system.mem_ctrls.dram.perBankWrBursts::3          330                       # Per bank write bursts (Count)
system.mem_ctrls.dram.perBankWrBursts::4          356                       # Per bank write bursts (Count)
system.mem_ctrls.dram.perBankWrBursts::5          439                       # Per bank write bursts (Count)
system.mem_ctrls.dram.perBankWrBursts::6          408                       # Per bank write bursts (Count)
system.mem_ctrls.dram.perBankWrBursts::7          354                       # Per bank write bursts (Count)
system.mem_ctrls.dram.perBankWrBursts::8          505                       # Per bank write bursts (Count)
system.mem_ctrls.dram.perBankWrBursts::9          337                       # Per bank write bursts (Count)
system.mem_ctrls.dram.perBankWrBursts::10          332                       # Per bank write bursts (Count)
system.mem_ctrls.dram.perBankWrBursts::11          305                       # Per bank write bursts (Count)
system.mem_ctrls.dram.perBankWrBursts::12          200                       # Per bank write bursts (Count)
system.mem_ctrls.dram.perBankWrBursts::13          377                       # Per bank write bursts (Count)
system.mem_ctrls.dram.perBankWrBursts::14          403                       # Per bank write bursts (Count)
system.mem_ctrls.dram.perBankWrBursts::15          407                       # Per bank write bursts (Count)
system.mem_ctrls.dram.totQLat                89561250                       # Total ticks spent queuing (Tick)
system.mem_ctrls.dram.totBusLat              47255000                       # Total ticks spent in databus transfers (Tick)
system.mem_ctrls.dram.totMemAccLat          266767500                       # Total ticks spent from burst creation until serviced by the DRAM (Tick)
system.mem_ctrls.dram.avgQLat                 9476.38                       # Average queueing delay per DRAM burst ((Tick/Count))
system.mem_ctrls.dram.avgBusLat               5000.00                       # Average bus latency per DRAM burst ((Tick/Count))
system.mem_ctrls.dram.avgMemAccLat           28226.38                       # Average memory access latency per DRAM burst ((Tick/Count))
system.mem_ctrls.dram.readRowHits                7555                       # Number of row buffer hits during reads (Count)
system.mem_ctrls.dram.writeRowHits               5250                       # Number of row buffer hits during writes (Count)
system.mem_ctrls.dram.readRowHitRate            79.94                       # Row buffer hit rate for reads (Ratio)
system.mem_ctrls.dram.writeRowHitRate           85.44                       # Row buffer hit rate for writes (Ratio)
system.mem_ctrls.dram.bytesPerActivate::samples         2776                       # Bytes accessed per row activation (Byte)
system.mem_ctrls.dram.bytesPerActivate::mean   358.409222                       # Bytes accessed per row activation (Byte)
system.mem_ctrls.dram.bytesPerActivate::gmean   247.329457                       # Bytes accessed per row activation (Byte)
system.mem_ctrls.dram.bytesPerActivate::stdev   306.049883                       # Bytes accessed per row activation (Byte)
system.mem_ctrls.dram.bytesPerActivate::0-127          462     16.64%     16.64% # Bytes accessed per row activation (Byte)
system.mem_ctrls.dram.bytesPerActivate::128-255          875     31.52%     48.16% # Bytes accessed per row activation (Byte)
system.mem_ctrls.dram.bytesPerActivate::256-383          249      8.97%     57.13% # Bytes accessed per row activation (Byte)
system.mem_ctrls.dram.bytesPerActivate::384-511          594     21.40%     78.53% # Bytes accessed per row activation (Byte)
system.mem_ctrls.dram.bytesPerActivate::512-639           73      2.63%     81.16% # Bytes accessed per row activation (Byte)
system.mem_ctrls.dram.bytesPerActivate::640-767           82      2.95%     84.11% # Bytes accessed per row activation (Byte)
system.mem_ctrls.dram.bytesPerActivate::768-895           82      2.95%     87.07% # Bytes accessed per row activation (Byte)
system.mem_ctrls.dram.bytesPerActivate::896-1023           55      1.98%     89.05% # Bytes accessed per row activation (Byte)
system.mem_ctrls.dram.bytesPerActivate::1024-1151          304     10.95%    100.00% # Bytes accessed per row activation (Byte)
system.mem_ctrls.dram.bytesPerActivate::total         2776                       # Bytes accessed per row activation (Byte)
system.mem_ctrls.dram.bytesRead                604864                       # Total bytes read (Byte)
system.mem_ctrls.dram.bytesWritten             393280                       # Total bytes written (Byte)
system.mem_ctrls.dram.avgRdBW               58.028855                       # Average DRAM read bandwidth in MiBytes/s ((Byte/Second))
system.mem_ctrls.dram.avgWrBW               37.730115                       # Average DRAM write bandwidth in MiBytes/s ((Byte/Second))
system.mem_ctrls.dram.peakBW                 12800.00                       # Theoretical peak bandwidth in MiByte/s ((Byte/Second))
system.mem_ctrls.dram.busUtil                    0.75                       # Data bus utilization in percentage (Ratio)
system.mem_ctrls.dram.busUtilRead                0.45                       # Data bus utilization in percentage for reads (Ratio)
system.mem_ctrls.dram.busUtilWrite               0.29                       # Data bus utilization in percentage for writes (Ratio)
system.mem_ctrls.dram.pageHitRate               82.10                       # Row buffer hit rate, read and write combined (Ratio)
system.mem_ctrls.dram.power_state.pwrStateResidencyTicks::UNDEFINED  10423504000                       # Cumulative time (in ticks) in various power states (Tick)
system.mem_ctrls.dram.rank0.actEnergy        10638600                       # Energy for activate commands per rank (pJ) (Joule)
system.mem_ctrls.dram.rank0.preEnergy         5627985                       # Energy for precharge commands per rank (pJ) (Joule)
system.mem_ctrls.dram.rank0.readEnergy       36463980                       # Energy for read commands per rank (pJ) (Joule)
system.mem_ctrls.dram.rank0.writeEnergy      17116380                       # Energy for write commands per rank (pJ) (Joule)
system.mem_ctrls.dram.rank0.refreshEnergy 822388320.000000                       # Energy for refresh commands per rank (pJ) (Joule)
system.mem_ctrls.dram.rank0.actBackEnergy   1764879600                       # Energy for active background per rank (pJ) (Joule)
system.mem_ctrls.dram.rank0.preBackEnergy   2516411520                       # Energy for precharge background per rank (pJ) (Joule)
system.mem_ctrls.dram.rank0.actPowerDownEnergy            0                       # Energy for active power-down per rank (pJ) (Joule)
system.mem_ctrls.dram.rank0.prePowerDownEnergy            0                       # Energy for precharge power-down per rank (pJ) (Joule)
system.mem_ctrls.dram.rank0.selfRefreshEnergy            0                       # Energy for self refresh per rank (pJ) (Joule)
system.mem_ctrls.dram.rank0.totalEnergy    5173526385                       # Total energy per rank (pJ) (Joule)
system.mem_ctrls.dram.rank0.averagePower   496.332748                       # Core power per rank (mW) (Watt)
system.mem_ctrls.dram.rank0.totalIdleTime            0                       # Total Idle time Per DRAM Rank (Tick)
system.mem_ctrls.dram.rank0.pwrStateTime::IDLE   6524832000                       # Time in different power states (Tick)
system.mem_ctrls.dram.rank0.pwrStateTime::REF    347880000                       # Time in different power states (Tick)
system.mem_ctrls.dram.rank0.pwrStateTime::SREF            0                       # Time in different power states (Tick)
system.mem_ctrls.dram.rank0.pwrStateTime::PRE_PDN            0                       # Time in different power states (Tick)
system.mem_ctrls.dram.rank0.pwrStateTime::ACT   3550792000                       # Time in different power states (Tick)
system.mem_ctrls.dram.rank0.pwrStateTime::ACT_PDN            0                       # Time in different power states (Tick)
system.mem_ctrls.dram.rank1.actEnergy         9289140                       # Energy for activate commands per rank (pJ) (Joule)
system.mem_ctrls.dram.rank1.preEnergy         4906935                       # Energy for precharge commands per rank (pJ) (Joule)
system.mem_ctrls.dram.rank1.readEnergy       31016160                       # Energy for read commands per rank (pJ) (Joule)
system.mem_ctrls.dram.rank1.writeEnergy      14960520                       # Energy for write commands per rank (pJ) (Joule)
system.mem_ctrls.dram.rank1.refreshEnergy 822388320.000000                       # Energy for refresh commands per rank (pJ) (Joule)
system.mem_ctrls.dram.rank1.actBackEnergy   1786804080                       # Energy for active background per rank (pJ) (Joule)
system.mem_ctrls.dram.rank1.preBackEnergy   2497948800                       # Energy for precharge background per rank (pJ) (Joule)
system.mem_ctrls.dram.rank1.actPowerDownEnergy            0                       # Energy for active power-down per rank (pJ) (Joule)
system.mem_ctrls.dram.rank1.prePowerDownEnergy            0                       # Energy for precharge power-down per rank (pJ) (Joule)
system.mem_ctrls.dram.rank1.selfRefreshEnergy            0                       # Energy for self refresh per rank (pJ) (Joule)
system.mem_ctrls.dram.rank1.totalEnergy    5167313955                       # Total energy per rank (pJ) (Joule)
system.mem_ctrls.dram.rank1.averagePower   495.736746                       # Core power per rank (mW) (Watt)
system.mem_ctrls.dram.rank1.totalIdleTime            0                       # Total Idle time Per DRAM Rank (Tick)
system.mem_ctrls.dram.rank1.pwrStateTime::IDLE   6477625750                       # Time in different power states (Tick)
system.mem_ctrls.dram.rank1.pwrStateTime::REF    347880000                       # Time in different power states (Tick)
system.mem_ctrls.dram.rank1.pwrStateTime::SREF            0                       # Time in different power states (Tick)
system.mem_ctrls.dram.rank1.pwrStateTime::PRE_PDN            0                       # Time in different power states (Tick)
system.mem_ctrls.dram.rank1.pwrStateTime::ACT   3597998250                       # Time in different power states (Tick)
system.mem_ctrls.dram.rank1.pwrStateTime::ACT_PDN            0                       # Time in different power states (Tick)
system.mem_ctrls.power_state.pwrStateResidencyTicks::UNDEFINED  10423504000                       # Cumulative time (in ticks) in various power states (Tick)
system.membus.transDist::ReadResp               31244                       # Transaction distribution (Count)
system.membus.transDist::WritebackDirty          5565                       # Transaction distribution (Count)
system.membus.transDist::WritebackClean         25173                       # Transaction distribution (Count)
system.membus.transDist::CleanEvict               793                       # Transaction distribution (Count)
system.membus.transDist::ReadExReq               2824                       # Transaction distribution (Count)
system.membus.transDist::ReadExResp              2824                       # Transaction distribution (Count)
system.membus.transDist::ReadCleanReq           25663                       # Transaction distribution (Count)
system.membus.transDist::ReadSharedReq           5583                       # Transaction distribution (Count)
system.membus.pktCount_system.cpu.icache.mem_side_port::system.mem_ctrls.port        76498                       # Packet count per connected requestor and responder (Count)
system.membus.pktCount_system.cpu.icache.mem_side_port::total        76498                       # Packet count per connected requestor and responder (Count)
system.membus.pktCount_system.cpu.dcache.mem_side_port::system.mem_ctrls.port        23171                       # Packet count per connected requestor and responder (Count)
system.membus.pktCount_system.cpu.dcache.mem_side_port::total        23171                       # Packet count per connected requestor and responder (Count)
system.membus.pktCount::total                   99669                       # Packet count per connected requestor and responder (Count)
system.membus.pktSize_system.cpu.icache.mem_side_port::system.mem_ctrls.port      3253440                       # Cumulative packet size per connected requestor and responder (Byte)
system.membus.pktSize_system.cpu.icache.mem_side_port::total      3253440                       # Cumulative packet size per connected requestor and responder (Byte)
system.membus.pktSize_system.cpu.dcache.mem_side_port::system.mem_ctrls.port       894144                       # Cumulative packet size per connected requestor and responder (Byte)
system.membus.pktSize_system.cpu.dcache.mem_side_port::total       894144                       # Cumulative packet size per connected requestor and responder (Byte)
system.membus.pktSize::total                  4147584                       # Cumulative packet size per connected requestor and responder (Byte)
system.membus.snoops                                0                       # Total snoops (Count)
system.membus.snoopTraffic                          0                       # Total snoop traffic (Byte)
system.membus.snoopFanout::samples              34070                       # Request fanout histogram (Count)
system.membus.snoopFanout::mean              0.000029                       # Request fanout histogram (Count)
system.membus.snoopFanout::stdev             0.005418                       # Request fanout histogram (Count)
system.membus.snoopFanout::underflows               0      0.00%      0.00% # Request fanout histogram (Count)
system.membus.snoopFanout::0                    34069    100.00%    100.00% # Request fanout histogram (Count)
system.membus.snoopFanout::1                        1      0.00%    100.00% # Request fanout histogram (Count)
system.membus.snoopFanout::2                        0      0.00%    100.00% # Request fanout histogram (Count)
system.membus.snoopFanout::3                        0      0.00%    100.00% # Request fanout histogram (Count)
system.membus.snoopFanout::4                        0      0.00%    100.00% # Request fanout histogram (Count)
system.membus.snoopFanout::overflows                0      0.00%    100.00% # Request fanout histogram (Count)
system.membus.snoopFanout::min_value                0                       # Request fanout histogram (Count)
system.membus.snoopFanout::max_value                1                       # Request fanout histogram (Count)
system.membus.snoopFanout::total                34070                       # Request fanout histogram (Count)
system.membus.power_state.pwrStateResidencyTicks::UNDEFINED  10423504000                       # Cumulative time (in ticks) in various power states (Tick)
system.membus.reqLayer2.occupancy           197370000                       # Layer occupancy (ticks) (Tick)
system.membus.reqLayer2.utilization               0.0                       # Layer utilization (Ratio)
system.membus.respLayer1.occupancy          128642500                       # Layer occupancy (ticks) (Tick)
system.membus.respLayer1.utilization              0.0                       # Layer utilization (Ratio)
system.membus.respLayer2.occupancy           44541250                       # Layer occupancy (ticks) (Tick)
system.membus.respLayer2.utilization              0.0                       # Layer utilization (Ratio)
system.membus.snoop_filter.totRequests          65601                       # Total number of requests made to the snoop filter. (Count)
system.membus.snoop_filter.hitSingleRequests        31532                       # Number of requests hitting in the snoop filter with a single holder of the requested data. (Count)
system.membus.snoop_filter.hitMultiRequests            0                       # Number of requests hitting in the snoop filter with multiple (>1) holders of the requested data. (Count)
system.membus.snoop_filter.totSnoops                0                       # Total number of snoops made to the snoop filter. (Count)
system.membus.snoop_filter.hitSingleSnoops            0                       # Number of snoops hitting in the snoop filter with a single holder of the requested data. (Count)
system.membus.snoop_filter.hitMultiSnoops            0                       # Number of snoops hitting in the snoop filter with multiple (>1) holders of the requested data. (Count)
system.voltage_domain.voltage                       1                       # Voltage in Volts (Volt)
system.workload.inst.arm                            0                       # number of arm instructions executed (Count)
system.workload.inst.quiesce                        0                       # number of quiesce instructions executed (Count)

---------- End Simulation Statistics   ----------
