
---------- Begin Simulation Statistics ----------
simSeconds                                   0.010549                       # Number of seconds simulated (Second)
simTicks                                  10549231000                       # Number of ticks simulated (Tick)
finalTick                                 10549231000                       # Number of ticks from beginning of simulation (restored from checkpoints and never reset) (Tick)
simFreq                                  1000000000000                       # The number of ticks per simulated second ((Tick/Second))
hostSeconds                                     72.52                       # Real time elapsed on the host (Second)
hostTickRate                                145458266                       # The number of ticks simulated per host second (ticks/s) ((Tick/Second))
hostMemory                                     666932                       # Number of bytes of host memory used (Byte)
simInsts                                     34932178                       # Number of instructions simulated (Count)
simOps                                       69036779                       # Number of ops (including micro ops) simulated (Count)
hostInstRate                                   481663                       # Simulator instruction rate (inst/s) ((Count/Second))
hostOpRate                                     951914                       # Simulator op (including micro ops) rate (op/s) ((Count/Second))
system.clk_domain.clock                          1000                       # Clock period in ticks (Tick)
system.cpu.numCycles                         21098463                       # Number of cpu cycles simulated (Cycle)
system.cpu.numWorkItemsStarted                      0                       # Number of work items this cpu started (Count)
system.cpu.numWorkItemsCompleted                    0                       # Number of work items this cpu completed (Count)
system.cpu.instsAdded                        73020592                       # Number of instructions added to the IQ (excludes non-spec) (Count)
system.cpu.nonSpecInstsAdded                       45                       # Number of non-speculative instructions added to the IQ (Count)
system.cpu.instsIssued                       71664675                       # Number of instructions issued (Count)
system.cpu.squashedInstsIssued                  28231                       # Number of squashed instructions issued (Count)
system.cpu.squashedInstsExamined              3983852                       # Number of squashed instructions iterated over during squash; mainly for profiling (Count)
system.cpu.squashedOperandsExamined           5996404                       # Number of squashed operands that are examined and possibly removed from graph (Count)
system.cpu.squashedNonSpecRemoved                  27                       # Number of squashed non-spec instructions that were removed (Count)
system.cpu.numIssuedDist::samples            20871213                       # Number of insts issued each cycle (Count)
system.cpu.numIssuedDist::mean               3.433661                       # Number of insts issued each cycle (Count)
system.cpu.numIssuedDist::stdev              2.360355                       # Number of insts issued each cycle (Count)
system.cpu.numIssuedDist::underflows                0      0.00%      0.00% # Number of insts issued each cycle (Count)
system.cpu.numIssuedDist::0                   3332550     15.97%     15.97% # Number of insts issued each cycle (Count)
system.cpu.numIssuedDist::1                   1882923      9.02%     24.99% # Number of insts issued each cycle (Count)
system.cpu.numIssuedDist::2                   2439101     11.69%     36.68% # Number of insts issued each cycle (Count)
system.cpu.numIssuedDist::3                   3307030     15.84%     52.52% # Number of insts issued each cycle (Count)
system.cpu.numIssuedDist::4                   2704232     12.96%     65.48% # Number of insts issued each cycle (Count)
system.cpu.numIssuedDist::5                   2246752     10.76%     76.24% # Number of insts issued each cycle (Count)
system.cpu.numIssuedDist::6                   2609412     12.50%     88.74% # Number of insts issued each cycle (Count)
system.cpu.numIssuedDist::7                   1518404      7.28%     96.02% # Number of insts issued each cycle (Count)
system.cpu.numIssuedDist::8                    830809      3.98%    100.00% # Number of insts issued each cycle (Count)
system.cpu.numIssuedDist::overflows                 0      0.00%    100.00% # Number of insts issued each cycle (Count)
system.cpu.numIssuedDist::min_value                 0                       # Number of insts issued each cycle (Count)
system.cpu.numIssuedDist::max_value                 8                       # Number of insts issued each cycle (Count)
system.cpu.numIssuedDist::total              20871213                       # Number of insts issued each cycle (Count)
system.cpu.statFuBusy::No_OpClass                   0      0.00%      0.00% # attempts to use FU when none available (Count)
system.cpu.statFuBusy::IntAlu                 1565767     89.38%     89.38% # attempts to use FU when none available (Count)
system.cpu.statFuBusy::IntMult                      0      0.00%     89.38% # attempts to use FU when none available (Count)
system.cpu.statFuBusy::IntDiv                       0      0.00%     89.38% # attempts to use FU when none available (Count)
system.cpu.statFuBusy::FloatAdd                     0      0.00%     89.38% # attempts to use FU when none available (Count)
system.cpu.statFuBusy::FloatCmp                     0      0.00%     89.38% # attempts to use FU when none available (Count)
system.cpu.statFuBusy::FloatCvt                     0      0.00%     89.38% # attempts to use FU when none available (Count)
system.cpu.statFuBusy::FloatMult                    0      0.00%     89.38% # attempts to use FU when none available (Count)
system.cpu.statFuBusy::FloatMultAcc                 0      0.00%     89.38% # attempts to use FU when none available (Count)
system.cpu.statFuBusy::FloatDiv                     0      0.00%     89.38% # attempts to use FU when none available (Count)
system.cpu.statFuBusy::FloatMisc                    0      0.00%     89.38% # attempts to use FU when none available (Count)
system.cpu.statFuBusy::FloatSqrt                    0      0.00%     89.38% # attempts to use FU when none available (Count)
system.cpu.statFuBusy::SimdAdd                      0      0.00%     89.38% # attempts to use FU when none available (Count)
system.cpu.statFuBusy::SimdAddAcc                   0      0.00%     89.38% # attempts to use FU when none available (Count)
system.cpu.statFuBusy::SimdAlu                  28777      1.64%     91.02% # attempts to use FU when none available (Count)
system.cpu.statFuBusy::SimdCmp                      0      0.00%     91.02% # attempts to use FU when none available (Count)
system.cpu.statFuBusy::SimdCvt                    122      0.01%     91.03% # attempts to use FU when none available (Count)
system.cpu.statFuBusy::SimdMisc                  8909      0.51%     91.54% # attempts to use FU when none available (Count)
system.cpu.statFuBusy::SimdMult                     0      0.00%     91.54% # attempts to use FU when none available (Count)
system.cpu.statFuBusy::SimdMultAcc                  0      0.00%     91.54% # attempts to use FU when none available (Count)
system.cpu.statFuBusy::SimdShift                    0      0.00%     91.54% # attempts to use FU when none available (Count)
system.cpu.statFuBusy::SimdShiftAcc                 0      0.00%     91.54% # attempts to use FU when none available (Count)
system.cpu.statFuBusy::SimdDiv                      0      0.00%     91.54% # attempts to use FU when none available (Count)
system.cpu.statFuBusy::SimdSqrt                     0      0.00%     91.54% # attempts to use FU when none available (Count)
system.cpu.statFuBusy::SimdFloatAdd              1079      0.06%     91.60% # attempts to use FU when none available (Count)
system.cpu.statFuBusy::SimdFloatAlu                 0      0.00%     91.60% # attempts to use FU when none available (Count)
system.cpu.statFuBusy::SimdFloatCmp                 0      0.00%     91.60% # attempts to use FU when none available (Count)
system.cpu.statFuBusy::SimdFloatCvt                 0      0.00%     91.60% # attempts to use FU when none available (Count)
system.cpu.statFuBusy::SimdFloatDiv                 0      0.00%     91.60% # attempts to use FU when none available (Count)
system.cpu.statFuBusy::SimdFloatMisc                0      0.00%     91.60% # attempts to use FU when none available (Count)
system.cpu.statFuBusy::SimdFloatMult            13604      0.78%     92.38% # attempts to use FU when none available (Count)
system.cpu.statFuBusy::SimdFloatMultAcc             0      0.00%     92.38% # attempts to use FU when none available (Count)
system.cpu.statFuBusy::SimdFloatSqrt                0      0.00%     92.38% # attempts to use FU when none available (Count)
system.cpu.statFuBusy::SimdReduceAdd                0      0.00%     92.38% # attempts to use FU when none available (Count)
system.cpu.statFuBusy::SimdReduceAlu                0      0.00%     92.38% # attempts to use FU when none available (Count)
system.cpu.statFuBusy::SimdReduceCmp                0      0.00%     92.38% # attempts to use FU when none available (Count)
system.cpu.statFuBusy::SimdFloatReduceAdd            0      0.00%     92.38% # attempts to use FU when none available (Count)
system.cpu.statFuBusy::SimdFloatReduceCmp            0      0.00%     92.38% # attempts to use FU when none available (Count)
system.cpu.statFuBusy::SimdAes                      0      0.00%     92.38% # attempts to use FU when none available (Count)
system.cpu.statFuBusy::SimdAesMix                   0      0.00%     92.38% # attempts to use FU when none available (Count)
system.cpu.statFuBusy::SimdSha1Hash                 0      0.00%     92.38% # attempts to use FU when none available (Count)
system.cpu.statFuBusy::SimdSha1Hash2                0      0.00%     92.38% # attempts to use FU when none available (Count)
system.cpu.statFuBusy::SimdSha256Hash               0      0.00%     92.38% # attempts to use FU when none available (Count)
system.cpu.statFuBusy::SimdSha256Hash2              0      0.00%     92.38% # attempts to use FU when none available (Count)
system.cpu.statFuBusy::SimdShaSigma2                0      0.00%     92.38% # attempts to use FU when none available (Count)
system.cpu.statFuBusy::SimdShaSigma3                0      0.00%     92.38% # attempts to use FU when none available (Count)
system.cpu.statFuBusy::SimdPredAlu                  0      0.00%     92.38% # attempts to use FU when none available (Count)
system.cpu.statFuBusy::MemRead                  97963      5.59%     97.97% # attempts to use FU when none available (Count)
system.cpu.statFuBusy::MemWrite                  1350      0.08%     98.05% # attempts to use FU when none available (Count)
system.cpu.statFuBusy::FloatMemRead             17651      1.01%     99.06% # attempts to use FU when none available (Count)
system.cpu.statFuBusy::FloatMemWrite            16547      0.94%    100.00% # attempts to use FU when none available (Count)
system.cpu.statFuBusy::IprAccess                    0      0.00%    100.00% # attempts to use FU when none available (Count)
system.cpu.statFuBusy::InstPrefetch                 0      0.00%    100.00% # attempts to use FU when none available (Count)
system.cpu.statIssuedInstType_0::No_OpClass       866572      1.21%      1.21% # Number of instructions issued per FU type, per thread (Count)
system.cpu.statIssuedInstType_0::IntAlu      55353270     77.24%     78.45% # Number of instructions issued per FU type, per thread (Count)
system.cpu.statIssuedInstType_0::IntMult        89549      0.12%     78.57% # Number of instructions issued per FU type, per thread (Count)
system.cpu.statIssuedInstType_0::IntDiv        910453      1.27%     79.84% # Number of instructions issued per FU type, per thread (Count)
system.cpu.statIssuedInstType_0::FloatAdd       366997      0.51%     80.36% # Number of instructions issued per FU type, per thread (Count)
system.cpu.statIssuedInstType_0::FloatCmp            0      0.00%     80.36% # Number of instructions issued per FU type, per thread (Count)
system.cpu.statIssuedInstType_0::FloatCvt            0      0.00%     80.36% # Number of instructions issued per FU type, per thread (Count)
system.cpu.statIssuedInstType_0::FloatMult            0      0.00%     80.36% # Number of instructions issued per FU type, per thread (Count)
system.cpu.statIssuedInstType_0::FloatMultAcc            0      0.00%     80.36% # Number of instructions issued per FU type, per thread (Count)
system.cpu.statIssuedInstType_0::FloatDiv            0      0.00%     80.36% # Number of instructions issued per FU type, per thread (Count)
system.cpu.statIssuedInstType_0::FloatMisc            0      0.00%     80.36% # Number of instructions issued per FU type, per thread (Count)
system.cpu.statIssuedInstType_0::FloatSqrt            0      0.00%     80.36% # Number of instructions issued per FU type, per thread (Count)
system.cpu.statIssuedInstType_0::SimdAdd            0      0.00%     80.36% # Number of instructions issued per FU type, per thread (Count)
system.cpu.statIssuedInstType_0::SimdAddAcc            0      0.00%     80.36% # Number of instructions issued per FU type, per thread (Count)
system.cpu.statIssuedInstType_0::SimdAlu       279301      0.39%     80.75% # Number of instructions issued per FU type, per thread (Count)
system.cpu.statIssuedInstType_0::SimdCmp          338      0.00%     80.75% # Number of instructions issued per FU type, per thread (Count)
system.cpu.statIssuedInstType_0::SimdCvt       164768      0.23%     80.98% # Number of instructions issued per FU type, per thread (Count)
system.cpu.statIssuedInstType_0::SimdMisc       242670      0.34%     81.31% # Number of instructions issued per FU type, per thread (Count)
system.cpu.statIssuedInstType_0::SimdMult            0      0.00%     81.31% # Number of instructions issued per FU type, per thread (Count)
system.cpu.statIssuedInstType_0::SimdMultAcc            0      0.00%     81.31% # Number of instructions issued per FU type, per thread (Count)
system.cpu.statIssuedInstType_0::SimdShift            0      0.00%     81.31% # Number of instructions issued per FU type, per thread (Count)
system.cpu.statIssuedInstType_0::SimdShiftAcc            0      0.00%     81.31% # Number of instructions issued per FU type, per thread (Count)
system.cpu.statIssuedInstType_0::SimdDiv            0      0.00%     81.31% # Number of instructions issued per FU type, per thread (Count)
system.cpu.statIssuedInstType_0::SimdSqrt            0      0.00%     81.31% # Number of instructions issued per FU type, per thread (Count)
system.cpu.statIssuedInstType_0::SimdFloatAdd       278528      0.39%     81.70% # Number of instructions issued per FU type, per thread (Count)
system.cpu.statIssuedInstType_0::SimdFloatAlu            0      0.00%     81.70% # Number of instructions issued per FU type, per thread (Count)
system.cpu.statIssuedInstType_0::SimdFloatCmp            0      0.00%     81.70% # Number of instructions issued per FU type, per thread (Count)
system.cpu.statIssuedInstType_0::SimdFloatCvt        16384      0.02%     81.73% # Number of instructions issued per FU type, per thread (Count)
system.cpu.statIssuedInstType_0::SimdFloatDiv            0      0.00%     81.73% # Number of instructions issued per FU type, per thread (Count)
system.cpu.statIssuedInstType_0::SimdFloatMisc            0      0.00%     81.73% # Number of instructions issued per FU type, per thread (Count)
system.cpu.statIssuedInstType_0::SimdFloatMult       262144      0.37%     82.09% # Number of instructions issued per FU type, per thread (Count)
system.cpu.statIssuedInstType_0::SimdFloatMultAcc            0      0.00%     82.09% # Number of instructions issued per FU type, per thread (Count)
system.cpu.statIssuedInstType_0::SimdFloatSqrt            0      0.00%     82.09% # Number of instructions issued per FU type, per thread (Count)
system.cpu.statIssuedInstType_0::SimdReduceAdd            0      0.00%     82.09% # Number of instructions issued per FU type, per thread (Count)
system.cpu.statIssuedInstType_0::SimdReduceAlu            0      0.00%     82.09% # Number of instructions issued per FU type, per thread (Count)
system.cpu.statIssuedInstType_0::SimdReduceCmp            0      0.00%     82.09% # Number of instructions issued per FU type, per thread (Count)
system.cpu.statIssuedInstType_0::SimdFloatReduceAdd            0      0.00%     82.09% # Number of instructions issued per FU type, per thread (Count)
system.cpu.statIssuedInstType_0::SimdFloatReduceCmp            0      0.00%     82.09% # Number of instructions issued per FU type, per thread (Count)
system.cpu.statIssuedInstType_0::SimdAes            0      0.00%     82.09% # Number of instructions issued per FU type, per thread (Count)
system.cpu.statIssuedInstType_0::SimdAesMix            0      0.00%     82.09% # Number of instructions issued per FU type, per thread (Count)
system.cpu.statIssuedInstType_0::SimdSha1Hash            0      0.00%     82.09% # Number of instructions issued per FU type, per thread (Count)
system.cpu.statIssuedInstType_0::SimdSha1Hash2            0      0.00%     82.09% # Number of instructions issued per FU type, per thread (Count)
system.cpu.statIssuedInstType_0::SimdSha256Hash            0      0.00%     82.09% # Number of instructions issued per FU type, per thread (Count)
system.cpu.statIssuedInstType_0::SimdSha256Hash2            0      0.00%     82.09% # Number of instructions issued per FU type, per thread (Count)
system.cpu.statIssuedInstType_0::SimdShaSigma2            0      0.00%     82.09% # Number of instructions issued per FU type, per thread (Count)
system.cpu.statIssuedInstType_0::SimdShaSigma3            0      0.00%     82.09% # Number of instructions issued per FU type, per thread (Count)
system.cpu.statIssuedInstType_0::SimdPredAlu            0      0.00%     82.09% # Number of instructions issued per FU type, per thread (Count)
system.cpu.statIssuedInstType_0::MemRead      7015589      9.79%     91.88% # Number of instructions issued per FU type, per thread (Count)
system.cpu.statIssuedInstType_0::MemWrite      4732949      6.60%     98.49% # Number of instructions issued per FU type, per thread (Count)
system.cpu.statIssuedInstType_0::FloatMemRead       604521      0.84%     99.33% # Number of instructions issued per FU type, per thread (Count)
system.cpu.statIssuedInstType_0::FloatMemWrite       480642      0.67%    100.00% # Number of instructions issued per FU type, per thread (Count)
system.cpu.statIssuedInstType_0::IprAccess            0      0.00%    100.00% # Number of instructions issued per FU type, per thread (Count)
system.cpu.statIssuedInstType_0::InstPrefetch            0      0.00%    100.00% # Number of instructions issued per FU type, per thread (Count)
system.cpu.statIssuedInstType_0::total       71664675                       # Number of instructions issued per FU type, per thread (Count)
system.cpu.issueRate                         3.396678                       # Inst issue rate ((Count/Cycle))
system.cpu.fuBusy                             1751769                       # FU busy when requested (Count)
system.cpu.fuBusyRate                        0.024444                       # FU busy rate (busy events/executed inst) ((Count/Count))
system.cpu.intInstQueueReads                160419003                       # Number of integer instruction queue reads (Count)
system.cpu.intInstQueueWrites                74231362                       # Number of integer instruction queue writes (Count)
system.cpu.intInstQueueWakeupAccesses        68487067                       # Number of integer instruction queue wakeup accesses (Count)
system.cpu.fpInstQueueReads                   5561560                       # Number of floating instruction queue reads (Count)
system.cpu.fpInstQueueWrites                  2773452                       # Number of floating instruction queue writes (Count)
system.cpu.fpInstQueueWakeupAccesses          2724425                       # Number of floating instruction queue wakeup accesses (Count)
system.cpu.vecInstQueueReads                        0                       # Number of vector instruction queue reads (Count)
system.cpu.vecInstQueueWrites                       0                       # Number of vector instruction queue writes (Count)
system.cpu.vecInstQueueWakeupAccesses               0                       # Number of vector instruction queue wakeup accesses (Count)
system.cpu.intAluAccesses                    69725758                       # Number of integer alu accesses (Count)
system.cpu.fpAluAccesses                      2824114                       # Number of floating point alu accesses (Count)
system.cpu.vecAluAccesses                           0                       # Number of vector alu accesses (Count)
system.cpu.numInsts                          71290995                       # Number of executed instructions (Count)
system.cpu.numLoadInsts                       7580463                       # Number of load instructions executed (Count)
system.cpu.numSquashedInsts                    373680                       # Number of squashed instructions skipped in execute (Count)
system.cpu.numSwp                                   0                       # Number of swp insts executed (Count)
system.cpu.numNop                                   0                       # Number of nop insts executed (Count)
system.cpu.numRefs                           12751285                       # Number of memory reference insts executed (Count)
system.cpu.numBranches                        8405512                       # Number of branches executed (Count)
system.cpu.numStoreInsts                      5170822                       # Number of stores executed (Count)
system.cpu.numRate                           3.378966                       # Inst execution rate ((Count/Cycle))
system.cpu.timesIdled                           13029                       # Number of times that the entire CPU went into an idle state and unscheduled itself (Count)
system.cpu.idleCycles                          227250                       # Total number of cycles that the CPU has spent unscheduled due to idling (Cycle)
system.cpu.committedInsts                    34932178                       # Number of Instructions Simulated (Count)
system.cpu.committedOps                      69036779                       # Number of Ops (including micro ops) Simulated (Count)
system.cpu.cpi                               0.603984                       # CPI: Cycles Per Instruction ((Cycle/Count))
system.cpu.totalCpi                          0.603984                       # CPI: Total CPI of All Threads ((Cycle/Count))
system.cpu.ipc                               1.655674                       # IPC: Instructions Per Cycle ((Count/Cycle))
system.cpu.totalIpc                          1.655674                       # IPC: Total IPC of All Threads ((Count/Cycle))
system.cpu.intRegfileReads                  108516523                       # Number of integer regfile reads (Count)
system.cpu.intRegfileWrites                  56614329                       # Number of integer regfile writes (Count)
system.cpu.fpRegfileReads                     3579861                       # Number of floating regfile reads (Count)
system.cpu.fpRegfileWrites                    2069437                       # Number of floating regfile writes (Count)
system.cpu.ccRegfileReads                    42944825                       # number of cc regfile reads (Count)
system.cpu.ccRegfileWrites                   22756838                       # number of cc regfile writes (Count)
system.cpu.miscRegfileReads                  27191048                       # number of misc regfile reads (Count)
system.cpu.MemDepUnit__0.insertedLoads        7656168                       # Number of loads inserted to the mem dependence unit. (Count)
system.cpu.MemDepUnit__0.insertedStores       5302165                       # Number of stores inserted to the mem dependence unit. (Count)
system.cpu.MemDepUnit__0.conflictingLoads       247211                       # Number of conflicting loads. (Count)
system.cpu.MemDepUnit__0.conflictingStores        24103                       # Number of conflicting stores. (Count)
system.cpu.MemDepUnit__1.insertedLoads              0                       # Number of loads inserted to the mem dependence unit. (Count)
system.cpu.MemDepUnit__1.insertedStores             0                       # Number of stores inserted to the mem dependence unit. (Count)
system.cpu.MemDepUnit__1.conflictingLoads            0                       # Number of conflicting loads. (Count)
system.cpu.MemDepUnit__1.conflictingStores            0                       # Number of conflicting stores. (Count)
system.cpu.MemDepUnit__2.insertedLoads              0                       # Number of loads inserted to the mem dependence unit. (Count)
system.cpu.MemDepUnit__2.insertedStores             0                       # Number of stores inserted to the mem dependence unit. (Count)
system.cpu.MemDepUnit__2.conflictingLoads            0                       # Number of conflicting loads. (Count)
system.cpu.MemDepUnit__2.conflictingStores            0                       # Number of conflicting stores. (Count)
system.cpu.MemDepUnit__3.insertedLoads              0                       # Number of loads inserted to the mem dependence unit. (Count)
system.cpu.MemDepUnit__3.insertedStores             0                       # Number of stores inserted to the mem dependence unit. (Count)
system.cpu.MemDepUnit__3.conflictingLoads            0                       # Number of conflicting loads. (Count)
system.cpu.MemDepUnit__3.conflictingStores            0                       # Number of conflicting stores. (Count)
system.cpu.branchPred.lookups                 9270333                       # Number of BP lookups (Count)
system.cpu.branchPred.condPredicted           7439154                       # Number of conditional branches predicted (Count)
system.cpu.branchPred.condIncorrect            146603                       # Number of conditional branches incorrect (Count)
system.cpu.branchPred.BTBLookups              5187943                       # Number of BTB lookups (Count)
system.cpu.branchPred.BTBHits                 5141866                       # Number of BTB hits (Count)
system.cpu.branchPred.BTBHitRatio            0.991118                       # BTB Hit Ratio (Ratio)
system.cpu.branchPred.RASUsed                  533822                       # Number of times the RAS was used to get a target. (Count)
system.cpu.branchPred.RASIncorrect                  2                       # Number of incorrect RAS predictions. (Count)
system.cpu.branchPred.indirectLookups          109696                       # Number of indirect predictor lookups. (Count)
system.cpu.branchPred.indirectHits             108771                       # Number of indirect target hits. (Count)
system.cpu.branchPred.indirectMisses              925                       # Number of indirect misses. (Count)
system.cpu.branchPred.indirectMispredicted          180                       # Number of mispredicted indirect branches. (Count)
system.cpu.commit.commitSquashedInsts         3761436                       # The number of squashed insts skipped by commit (Count)
system.cpu.commit.commitNonSpecStalls              18                       # The number of times commit has been forced to stall to communicate backwards (Count)
system.cpu.commit.branchMispredicts            138069                       # The number of times a branch was mispredicted (Count)
system.cpu.commit.numCommittedDist::samples     20322186                       # Number of insts commited each cycle (Count)
system.cpu.commit.numCommittedDist::mean     3.397114                       # Number of insts commited each cycle (Count)
system.cpu.commit.numCommittedDist::stdev     2.926289                       # Number of insts commited each cycle (Count)
system.cpu.commit.numCommittedDist::underflows            0      0.00%      0.00% # Number of insts commited each cycle (Count)
system.cpu.commit.numCommittedDist::0         3964576     19.51%     19.51% # Number of insts commited each cycle (Count)
system.cpu.commit.numCommittedDist::1         3069659     15.10%     34.61% # Number of insts commited each cycle (Count)
system.cpu.commit.numCommittedDist::2         2384588     11.73%     46.35% # Number of insts commited each cycle (Count)
system.cpu.commit.numCommittedDist::3         3183241     15.66%     62.01% # Number of insts commited each cycle (Count)
system.cpu.commit.numCommittedDist::4         1673936      8.24%     70.25% # Number of insts commited each cycle (Count)
system.cpu.commit.numCommittedDist::5          673495      3.31%     73.56% # Number of insts commited each cycle (Count)
system.cpu.commit.numCommittedDist::6          383128      1.89%     75.45% # Number of insts commited each cycle (Count)
system.cpu.commit.numCommittedDist::7          630270      3.10%     78.55% # Number of insts commited each cycle (Count)
system.cpu.commit.numCommittedDist::8         4359293     21.45%    100.00% # Number of insts commited each cycle (Count)
system.cpu.commit.numCommittedDist::overflows            0      0.00%    100.00% # Number of insts commited each cycle (Count)
system.cpu.commit.numCommittedDist::min_value            0                       # Number of insts commited each cycle (Count)
system.cpu.commit.numCommittedDist::max_value            8                       # Number of insts commited each cycle (Count)
system.cpu.commit.numCommittedDist::total     20322186                       # Number of insts commited each cycle (Count)
system.cpu.commit.instsCommitted             34932178                       # Number of instructions committed (Count)
system.cpu.commit.opsCommitted               69036779                       # Number of ops (including micro ops) committed (Count)
system.cpu.commit.memRefs                    12465518                       # Number of memory references committed (Count)
system.cpu.commit.loads                       7353093                       # Number of loads committed (Count)
system.cpu.commit.amos                              0                       # Number of atomic instructions committed (Count)
system.cpu.commit.membars                          12                       # Number of memory barriers committed (Count)
system.cpu.commit.branches                    8157686                       # Number of branches committed (Count)
system.cpu.commit.vectorInstructions                0                       # Number of committed Vector instructions. (Count)
system.cpu.commit.floating                    2719796                       # Number of committed floating point instructions. (Count)
system.cpu.commit.integer                    65681969                       # Number of committed integer instructions. (Count)
system.cpu.commit.functionCalls                491730                       # Number of function calls committed. (Count)
system.cpu.commit.committedInstType_0::No_OpClass       850896      1.23%      1.23% # Class of committed instruction (Count)
system.cpu.commit.committedInstType_0::IntAlu     53144293     76.98%     78.21% # Class of committed instruction (Count)
system.cpu.commit.committedInstType_0::IntMult        89549      0.13%     78.34% # Class of committed instruction (Count)
system.cpu.commit.committedInstType_0::IntDiv       882475      1.28%     79.62% # Class of committed instruction (Count)
system.cpu.commit.committedInstType_0::FloatAdd       360603      0.52%     80.14% # Class of committed instruction (Count)
system.cpu.commit.committedInstType_0::FloatCmp            0      0.00%     80.14% # Class of committed instruction (Count)
system.cpu.commit.committedInstType_0::FloatCvt            0      0.00%     80.14% # Class of committed instruction (Count)
system.cpu.commit.committedInstType_0::FloatMult            0      0.00%     80.14% # Class of committed instruction (Count)
system.cpu.commit.committedInstType_0::FloatMultAcc            0      0.00%     80.14% # Class of committed instruction (Count)
system.cpu.commit.committedInstType_0::FloatDiv            0      0.00%     80.14% # Class of committed instruction (Count)
system.cpu.commit.committedInstType_0::FloatMisc            0      0.00%     80.14% # Class of committed instruction (Count)
system.cpu.commit.committedInstType_0::FloatSqrt            0      0.00%     80.14% # Class of committed instruction (Count)
system.cpu.commit.committedInstType_0::SimdAdd            0      0.00%     80.14% # Class of committed instruction (Count)
system.cpu.commit.committedInstType_0::SimdAddAcc            0      0.00%     80.14% # Class of committed instruction (Count)
system.cpu.commit.committedInstType_0::SimdAlu       279104      0.40%     80.55% # Class of committed instruction (Count)
system.cpu.commit.committedInstType_0::SimdCmp          336      0.00%     80.55% # Class of committed instruction (Count)
system.cpu.commit.committedInstType_0::SimdCvt       164462      0.24%     80.79% # Class of committed instruction (Count)
system.cpu.commit.committedInstType_0::SimdMisc       242487      0.35%     81.14% # Class of committed instruction (Count)
system.cpu.commit.committedInstType_0::SimdMult            0      0.00%     81.14% # Class of committed instruction (Count)
system.cpu.commit.committedInstType_0::SimdMultAcc            0      0.00%     81.14% # Class of committed instruction (Count)
system.cpu.commit.committedInstType_0::SimdShift            0      0.00%     81.14% # Class of committed instruction (Count)
system.cpu.commit.committedInstType_0::SimdShiftAcc            0      0.00%     81.14% # Class of committed instruction (Count)
system.cpu.commit.committedInstType_0::SimdDiv            0      0.00%     81.14% # Class of committed instruction (Count)
system.cpu.commit.committedInstType_0::SimdSqrt            0      0.00%     81.14% # Class of committed instruction (Count)
system.cpu.commit.committedInstType_0::SimdFloatAdd       278528      0.40%     81.54% # Class of committed instruction (Count)
system.cpu.commit.committedInstType_0::SimdFloatAlu            0      0.00%     81.54% # Class of committed instruction (Count)
system.cpu.commit.committedInstType_0::SimdFloatCmp            0      0.00%     81.54% # Class of committed instruction (Count)
system.cpu.commit.committedInstType_0::SimdFloatCvt        16384      0.02%     81.56% # Class of committed instruction (Count)
system.cpu.commit.committedInstType_0::SimdFloatDiv            0      0.00%     81.56% # Class of committed instruction (Count)
system.cpu.commit.committedInstType_0::SimdFloatMisc            0      0.00%     81.56% # Class of committed instruction (Count)
system.cpu.commit.committedInstType_0::SimdFloatMult       262144      0.38%     81.94% # Class of committed instruction (Count)
system.cpu.commit.committedInstType_0::SimdFloatMultAcc            0      0.00%     81.94% # Class of committed instruction (Count)
system.cpu.commit.committedInstType_0::SimdFloatSqrt            0      0.00%     81.94% # Class of committed instruction (Count)
system.cpu.commit.committedInstType_0::SimdReduceAdd            0      0.00%     81.94% # Class of committed instruction (Count)
system.cpu.commit.committedInstType_0::SimdReduceAlu            0      0.00%     81.94% # Class of committed instruction (Count)
system.cpu.commit.committedInstType_0::SimdReduceCmp            0      0.00%     81.94% # Class of committed instruction (Count)
system.cpu.commit.committedInstType_0::SimdFloatReduceAdd            0      0.00%     81.94% # Class of committed instruction (Count)
system.cpu.commit.committedInstType_0::SimdFloatReduceCmp            0      0.00%     81.94% # Class of committed instruction (Count)
system.cpu.commit.committedInstType_0::SimdAes            0      0.00%     81.94% # Class of committed instruction (Count)
system.cpu.commit.committedInstType_0::SimdAesMix            0      0.00%     81.94% # Class of committed instruction (Count)
system.cpu.commit.committedInstType_0::SimdSha1Hash            0      0.00%     81.94% # Class of committed instruction (Count)
system.cpu.commit.committedInstType_0::SimdSha1Hash2            0      0.00%     81.94% # Class of committed instruction (Count)
system.cpu.commit.committedInstType_0::SimdSha256Hash            0      0.00%     81.94% # Class of committed instruction (Count)
system.cpu.commit.committedInstType_0::SimdSha256Hash2            0      0.00%     81.94% # Class of committed instruction (Count)
system.cpu.commit.committedInstType_0::SimdShaSigma2            0      0.00%     81.94% # Class of committed instruction (Count)
system.cpu.commit.committedInstType_0::SimdShaSigma3            0      0.00%     81.94% # Class of committed instruction (Count)
system.cpu.commit.committedInstType_0::SimdPredAlu            0      0.00%     81.94% # Class of committed instruction (Count)
system.cpu.commit.committedInstType_0::MemRead      6758208      9.79%     91.73% # Class of committed instruction (Count)
system.cpu.commit.committedInstType_0::MemWrite      4632678      6.71%     98.44% # Class of committed instruction (Count)
system.cpu.commit.committedInstType_0::FloatMemRead       594885      0.86%     99.31% # Class of committed instruction (Count)
system.cpu.commit.committedInstType_0::FloatMemWrite       479747      0.69%    100.00% # Class of committed instruction (Count)
system.cpu.commit.committedInstType_0::IprAccess            0      0.00%    100.00% # Class of committed instruction (Count)
system.cpu.commit.committedInstType_0::InstPrefetch            0      0.00%    100.00% # Class of committed instruction (Count)
system.cpu.commit.committedInstType_0::total     69036779                       # Class of committed instruction (Count)
system.cpu.commit.commitEligibleSamples       4359293                       # number cycles where commit BW limit reached (Cycle)
system.cpu.dcache.demandHits::cpu.data       11731858                       # number of demand (read+write) hits (Count)
system.cpu.dcache.demandHits::total          11731858                       # number of demand (read+write) hits (Count)
system.cpu.dcache.overallHits::cpu.data      11731858                       # number of overall hits (Count)
system.cpu.dcache.overallHits::total         11731858                       # number of overall hits (Count)
system.cpu.dcache.demandMisses::cpu.data        35499                       # number of demand (read+write) misses (Count)
system.cpu.dcache.demandMisses::total           35499                       # number of demand (read+write) misses (Count)
system.cpu.dcache.overallMisses::cpu.data        35499                       # number of overall misses (Count)
system.cpu.dcache.overallMisses::total          35499                       # number of overall misses (Count)
system.cpu.dcache.demandMissLatency::cpu.data   2001961497                       # number of demand (read+write) miss ticks (Tick)
system.cpu.dcache.demandMissLatency::total   2001961497                       # number of demand (read+write) miss ticks (Tick)
system.cpu.dcache.overallMissLatency::cpu.data   2001961497                       # number of overall miss ticks (Tick)
system.cpu.dcache.overallMissLatency::total   2001961497                       # number of overall miss ticks (Tick)
system.cpu.dcache.demandAccesses::cpu.data     11767357                       # number of demand (read+write) accesses (Count)
system.cpu.dcache.demandAccesses::total      11767357                       # number of demand (read+write) accesses (Count)
system.cpu.dcache.overallAccesses::cpu.data     11767357                       # number of overall (read+write) accesses (Count)
system.cpu.dcache.overallAccesses::total     11767357                       # number of overall (read+write) accesses (Count)
system.cpu.dcache.demandMissRate::cpu.data     0.003017                       # miss rate for demand accesses (Ratio)
system.cpu.dcache.demandMissRate::total      0.003017                       # miss rate for demand accesses (Ratio)
system.cpu.dcache.overallMissRate::cpu.data     0.003017                       # miss rate for overall accesses (Ratio)
system.cpu.dcache.overallMissRate::total     0.003017                       # miss rate for overall accesses (Ratio)
system.cpu.dcache.demandAvgMissLatency::cpu.data 56394.870194                       # average overall miss latency ((Cycle/Count))
system.cpu.dcache.demandAvgMissLatency::total 56394.870194                       # average overall miss latency ((Cycle/Count))
system.cpu.dcache.overallAvgMissLatency::cpu.data 56394.870194                       # average overall miss latency ((Cycle/Count))
system.cpu.dcache.overallAvgMissLatency::total 56394.870194                       # average overall miss latency ((Cycle/Count))
system.cpu.dcache.blockedCycles::no_mshrs        32940                       # number of cycles access was blocked (Cycle)
system.cpu.dcache.blockedCycles::no_targets            0                       # number of cycles access was blocked (Cycle)
system.cpu.dcache.blockedCauses::no_mshrs          790                       # number of times access was blocked (Count)
system.cpu.dcache.blockedCauses::no_targets            0                       # number of times access was blocked (Count)
system.cpu.dcache.avgBlocked::no_mshrs      41.696203                       # average number of cycles each access was blocked ((Cycle/Count))
system.cpu.dcache.avgBlocked::no_targets          nan                       # average number of cycles each access was blocked ((Cycle/Count))
system.cpu.dcache.writebacks::writebacks         7609                       # number of writebacks (Count)
system.cpu.dcache.writebacks::total              7609                       # number of writebacks (Count)
system.cpu.dcache.demandMshrHits::cpu.data        22274                       # number of demand (read+write) MSHR hits (Count)
system.cpu.dcache.demandMshrHits::total         22274                       # number of demand (read+write) MSHR hits (Count)
system.cpu.dcache.overallMshrHits::cpu.data        22274                       # number of overall MSHR hits (Count)
system.cpu.dcache.overallMshrHits::total        22274                       # number of overall MSHR hits (Count)
system.cpu.dcache.demandMshrMisses::cpu.data        13225                       # number of demand (read+write) MSHR misses (Count)
system.cpu.dcache.demandMshrMisses::total        13225                       # number of demand (read+write) MSHR misses (Count)
system.cpu.dcache.overallMshrMisses::cpu.data        13225                       # number of overall MSHR misses (Count)
system.cpu.dcache.overallMshrMisses::total        13225                       # number of overall MSHR misses (Count)
system.cpu.dcache.demandMshrMissLatency::cpu.data    777796998                       # number of demand (read+write) MSHR miss ticks (Tick)
system.cpu.dcache.demandMshrMissLatency::total    777796998                       # number of demand (read+write) MSHR miss ticks (Tick)
system.cpu.dcache.overallMshrMissLatency::cpu.data    777796998                       # number of overall MSHR miss ticks (Tick)
system.cpu.dcache.overallMshrMissLatency::total    777796998                       # number of overall MSHR miss ticks (Tick)
system.cpu.dcache.demandMshrMissRate::cpu.data     0.001124                       # mshr miss ratio for demand accesses (Ratio)
system.cpu.dcache.demandMshrMissRate::total     0.001124                       # mshr miss ratio for demand accesses (Ratio)
system.cpu.dcache.overallMshrMissRate::cpu.data     0.001124                       # mshr miss ratio for overall accesses (Ratio)
system.cpu.dcache.overallMshrMissRate::total     0.001124                       # mshr miss ratio for overall accesses (Ratio)
system.cpu.dcache.demandAvgMshrMissLatency::cpu.data 58812.627448                       # average overall mshr miss latency ((Cycle/Count))
system.cpu.dcache.demandAvgMshrMissLatency::total 58812.627448                       # average overall mshr miss latency ((Cycle/Count))
system.cpu.dcache.overallAvgMshrMissLatency::cpu.data 58812.627448                       # average overall mshr miss latency ((Cycle/Count))
system.cpu.dcache.overallAvgMshrMissLatency::total 58812.627448                       # average overall mshr miss latency ((Cycle/Count))
system.cpu.dcache.replacements                  12201                       # number of replacements (Count)
system.cpu.dcache.ReadReq.hits::cpu.data      6622789                       # number of ReadReq hits (Count)
system.cpu.dcache.ReadReq.hits::total         6622789                       # number of ReadReq hits (Count)
system.cpu.dcache.ReadReq.misses::cpu.data        32142                       # number of ReadReq misses (Count)
system.cpu.dcache.ReadReq.misses::total         32142                       # number of ReadReq misses (Count)
system.cpu.dcache.ReadReq.missLatency::cpu.data   1804531000                       # number of ReadReq miss ticks (Tick)
system.cpu.dcache.ReadReq.missLatency::total   1804531000                       # number of ReadReq miss ticks (Tick)
system.cpu.dcache.ReadReq.accesses::cpu.data      6654931                       # number of ReadReq accesses(hits+misses) (Count)
system.cpu.dcache.ReadReq.accesses::total      6654931                       # number of ReadReq accesses(hits+misses) (Count)
system.cpu.dcache.ReadReq.missRate::cpu.data     0.004830                       # miss rate for ReadReq accesses (Ratio)
system.cpu.dcache.ReadReq.missRate::total     0.004830                       # miss rate for ReadReq accesses (Ratio)
system.cpu.dcache.ReadReq.avgMissLatency::cpu.data 56142.461577                       # average ReadReq miss latency ((Tick/Count))
system.cpu.dcache.ReadReq.avgMissLatency::total 56142.461577                       # average ReadReq miss latency ((Tick/Count))
system.cpu.dcache.ReadReq.mshrHits::cpu.data        22272                       # number of ReadReq MSHR hits (Count)
system.cpu.dcache.ReadReq.mshrHits::total        22272                       # number of ReadReq MSHR hits (Count)
system.cpu.dcache.ReadReq.mshrMisses::cpu.data         9870                       # number of ReadReq MSHR misses (Count)
system.cpu.dcache.ReadReq.mshrMisses::total         9870                       # number of ReadReq MSHR misses (Count)
system.cpu.dcache.ReadReq.mshrMissLatency::cpu.data    583771500                       # number of ReadReq MSHR miss ticks (Tick)
system.cpu.dcache.ReadReq.mshrMissLatency::total    583771500                       # number of ReadReq MSHR miss ticks (Tick)
system.cpu.dcache.ReadReq.mshrMissRate::cpu.data     0.001483                       # mshr miss rate for ReadReq accesses (Ratio)
system.cpu.dcache.ReadReq.mshrMissRate::total     0.001483                       # mshr miss rate for ReadReq accesses (Ratio)
system.cpu.dcache.ReadReq.avgMshrMissLatency::cpu.data 59146.048632                       # average ReadReq mshr miss latency ((Tick/Count))
system.cpu.dcache.ReadReq.avgMshrMissLatency::total 59146.048632                       # average ReadReq mshr miss latency ((Tick/Count))
system.cpu.dcache.WriteReq.hits::cpu.data      5109069                       # number of WriteReq hits (Count)
system.cpu.dcache.WriteReq.hits::total        5109069                       # number of WriteReq hits (Count)
system.cpu.dcache.WriteReq.misses::cpu.data         3357                       # number of WriteReq misses (Count)
system.cpu.dcache.WriteReq.misses::total         3357                       # number of WriteReq misses (Count)
system.cpu.dcache.WriteReq.missLatency::cpu.data    197430497                       # number of WriteReq miss ticks (Tick)
system.cpu.dcache.WriteReq.missLatency::total    197430497                       # number of WriteReq miss ticks (Tick)
system.cpu.dcache.WriteReq.accesses::cpu.data      5112426                       # number of WriteReq accesses(hits+misses) (Count)
system.cpu.dcache.WriteReq.accesses::total      5112426                       # number of WriteReq accesses(hits+misses) (Count)
system.cpu.dcache.WriteReq.missRate::cpu.data     0.000657                       # miss rate for WriteReq accesses (Ratio)
system.cpu.dcache.WriteReq.missRate::total     0.000657                       # miss rate for WriteReq accesses (Ratio)
system.cpu.dcache.WriteReq.avgMissLatency::cpu.data 58811.586833                       # average WriteReq miss latency ((Tick/Count))
system.cpu.dcache.WriteReq.avgMissLatency::total 58811.586833                       # average WriteReq miss latency ((Tick/Count))
system.cpu.dcache.WriteReq.mshrHits::cpu.data            2                       # number of WriteReq MSHR hits (Count)
system.cpu.dcache.WriteReq.mshrHits::total            2                       # number of WriteReq MSHR hits (Count)
system.cpu.dcache.WriteReq.mshrMisses::cpu.data         3355                       # number of WriteReq MSHR misses (Count)
system.cpu.dcache.WriteReq.mshrMisses::total         3355                       # number of WriteReq MSHR misses (Count)
system.cpu.dcache.WriteReq.mshrMissLatency::cpu.data    194025498                       # number of WriteReq MSHR miss ticks (Tick)
system.cpu.dcache.WriteReq.mshrMissLatency::total    194025498                       # number of WriteReq MSHR miss ticks (Tick)
system.cpu.dcache.WriteReq.mshrMissRate::cpu.data     0.000656                       # mshr miss rate for WriteReq accesses (Ratio)
system.cpu.dcache.WriteReq.mshrMissRate::total     0.000656                       # mshr miss rate for WriteReq accesses (Ratio)
system.cpu.dcache.WriteReq.avgMshrMissLatency::cpu.data 57831.743070                       # average WriteReq mshr miss latency ((Tick/Count))
system.cpu.dcache.WriteReq.avgMshrMissLatency::total 57831.743070                       # average WriteReq mshr miss latency ((Tick/Count))
system.cpu.dcache.power_state.pwrStateResidencyTicks::UNDEFINED  10549231000                       # Cumulative time (in ticks) in various power states (Tick)
system.cpu.dcache.tags.tagsInUse          1019.690764                       # Average ticks per tags in use ((Tick/Count))
system.cpu.dcache.tags.totalRefs             11745083                       # Total number of references to valid blocks. (Count)
system.cpu.dcache.tags.sampledRefs              13225                       # Sample count of references to valid blocks. (Count)
system.cpu.dcache.tags.avgRefs             888.097013                       # Average number of references to valid blocks. ((Count/Count))
system.cpu.dcache.tags.warmupTick              145000                       # The tick when the warmup percentage was hit. (Tick)
system.cpu.dcache.tags.occupancies::cpu.data  1019.690764                       # Average occupied blocks per tick, per requestor ((Count/Tick))
system.cpu.dcache.tags.avgOccs::cpu.data     0.995792                       # Average percentage of cache occupancy ((Ratio/Tick))
system.cpu.dcache.tags.avgOccs::total        0.995792                       # Average percentage of cache occupancy ((Ratio/Tick))
system.cpu.dcache.tags.occupanciesTaskId::1024         1024                       # Occupied blocks per task id (Count)
system.cpu.dcache.tags.ageTaskId_1024::0          135                       # Occupied blocks per task id, per block age (Count)
system.cpu.dcache.tags.ageTaskId_1024::1          829                       # Occupied blocks per task id, per block age (Count)
system.cpu.dcache.tags.ageTaskId_1024::2           37                       # Occupied blocks per task id, per block age (Count)
system.cpu.dcache.tags.ageTaskId_1024::3           23                       # Occupied blocks per task id, per block age (Count)
system.cpu.dcache.tags.ratioOccsTaskId::1024            1                       # Ratio of occupied blocks and all blocks, per task id (Ratio)
system.cpu.dcache.tags.tagAccesses           23547939                       # Number of tag accesses (Count)
system.cpu.dcache.tags.dataAccesses          23547939                       # Number of data accesses (Count)
system.cpu.dcache.tags.power_state.pwrStateResidencyTicks::UNDEFINED  10549231000                       # Cumulative time (in ticks) in various power states (Tick)
system.cpu.decode.idleCycles                  5259194                       # Number of cycles decode is idle (Cycle)
system.cpu.decode.blockedCycles               3811946                       # Number of cycles decode is blocked (Cycle)
system.cpu.decode.runCycles                  10561472                       # Number of cycles decode is running (Cycle)
system.cpu.decode.unblockCycles               1096081                       # Number of cycles decode is unblocking (Cycle)
system.cpu.decode.squashCycles                 142520                       # Number of cycles decode is squashing (Cycle)
system.cpu.decode.branchResolved              4859530                       # Number of times decode resolved a branch (Count)
system.cpu.decode.branchMispred                  8647                       # Number of times decode detected a branch misprediction (Count)
system.cpu.decode.decodedInsts               74664833                       # Number of instructions handled by decode (Count)
system.cpu.decode.squashedInsts                 39114                       # Number of squashed instructions handled by decode (Count)
system.cpu.dtb_walker_cache.blockedCycles::no_mshrs            0                       # number of cycles access was blocked (Cycle)
system.cpu.dtb_walker_cache.blockedCycles::no_targets            0                       # number of cycles access was blocked (Cycle)
system.cpu.dtb_walker_cache.blockedCauses::no_mshrs            0                       # number of times access was blocked (Count)
system.cpu.dtb_walker_cache.blockedCauses::no_targets            0                       # number of times access was blocked (Count)
system.cpu.dtb_walker_cache.avgBlocked::no_mshrs          nan                       # average number of cycles each access was blocked ((Cycle/Count))
system.cpu.dtb_walker_cache.avgBlocked::no_targets          nan                       # average number of cycles each access was blocked ((Cycle/Count))
system.cpu.dtb_walker_cache.replacements            0                       # number of replacements (Count)
system.cpu.dtb_walker_cache.power_state.pwrStateResidencyTicks::UNDEFINED  10549231000                       # Cumulative time (in ticks) in various power states (Tick)
system.cpu.dtb_walker_cache.tags.tagsInUse            0                       # Average ticks per tags in use ((Tick/Count))
system.cpu.dtb_walker_cache.tags.totalRefs            0                       # Total number of references to valid blocks. (Count)
system.cpu.dtb_walker_cache.tags.sampledRefs            0                       # Sample count of references to valid blocks. (Count)
system.cpu.dtb_walker_cache.tags.avgRefs          nan                       # Average number of references to valid blocks. ((Count/Count))
system.cpu.dtb_walker_cache.tags.warmupTick            0                       # The tick when the warmup percentage was hit. (Tick)
system.cpu.dtb_walker_cache.tags.tagAccesses            0                       # Number of tag accesses (Count)
system.cpu.dtb_walker_cache.tags.dataAccesses            0                       # Number of data accesses (Count)
system.cpu.dtb_walker_cache.tags.power_state.pwrStateResidencyTicks::UNDEFINED  10549231000                       # Cumulative time (in ticks) in various power states (Tick)
system.cpu.fetch.icacheStallCycles            5655595                       # Number of cycles fetch is stalled on an Icache miss (Cycle)
system.cpu.fetch.insts                       37869816                       # Number of instructions fetch has processed (Count)
system.cpu.fetch.branches                     9270333                       # Number of branches that fetch encountered (Count)
system.cpu.fetch.predictedBranches            5784459                       # Number of branches that fetch has predicted taken (Count)
system.cpu.fetch.cycles                      15063605                       # Number of cycles fetch has run and was not squashing or blocked (Cycle)
system.cpu.fetch.squashCycles                  302314                       # Number of cycles fetch has spent squashing (Cycle)
system.cpu.fetch.miscStallCycles                  117                       # Number of cycles fetch has spent waiting on interrupts, or bad addresses, or out of MSHRs (Cycle)
system.cpu.fetch.pendingTrapStallCycles           685                       # Number of stall cycles due to pending traps (Cycle)
system.cpu.fetch.pendingQuiesceStallCycles            1                       # Number of stall cycles due to pending quiesce instructions (Cycle)
system.cpu.fetch.icacheWaitRetryStallCycles           53                       # Number of stall cycles due to full MSHR (Cycle)
system.cpu.fetch.cacheLines                   4780146                       # Number of cache lines fetched (Count)
system.cpu.fetch.icacheSquashes                 35081                       # Number of outstanding Icache misses that were squashed (Count)
system.cpu.fetch.nisnDist::samples           20871213                       # Number of instructions fetched each cycle (Total) (Count)
system.cpu.fetch.nisnDist::mean              3.665758                       # Number of instructions fetched each cycle (Total) (Count)
system.cpu.fetch.nisnDist::stdev             3.557349                       # Number of instructions fetched each cycle (Total) (Count)
system.cpu.fetch.nisnDist::underflows               0      0.00%      0.00% # Number of instructions fetched each cycle (Total) (Count)
system.cpu.fetch.nisnDist::0                  8506962     40.76%     40.76% # Number of instructions fetched each cycle (Total) (Count)
system.cpu.fetch.nisnDist::1                   851601      4.08%     44.84% # Number of instructions fetched each cycle (Total) (Count)
system.cpu.fetch.nisnDist::2                   687767      3.30%     48.13% # Number of instructions fetched each cycle (Total) (Count)
system.cpu.fetch.nisnDist::3                   563521      2.70%     50.83% # Number of instructions fetched each cycle (Total) (Count)
system.cpu.fetch.nisnDist::4                  1229128      5.89%     56.72% # Number of instructions fetched each cycle (Total) (Count)
system.cpu.fetch.nisnDist::5                   990857      4.75%     61.47% # Number of instructions fetched each cycle (Total) (Count)
system.cpu.fetch.nisnDist::6                   491440      2.35%     63.83% # Number of instructions fetched each cycle (Total) (Count)
system.cpu.fetch.nisnDist::7                   627819      3.01%     66.83% # Number of instructions fetched each cycle (Total) (Count)
system.cpu.fetch.nisnDist::8                  6922118     33.17%    100.00% # Number of instructions fetched each cycle (Total) (Count)
system.cpu.fetch.nisnDist::overflows                0      0.00%    100.00% # Number of instructions fetched each cycle (Total) (Count)
system.cpu.fetch.nisnDist::min_value                0                       # Number of instructions fetched each cycle (Total) (Count)
system.cpu.fetch.nisnDist::max_value                8                       # Number of instructions fetched each cycle (Total) (Count)
system.cpu.fetch.nisnDist::total             20871213                       # Number of instructions fetched each cycle (Total) (Count)
system.cpu.fetch.branchRate                  0.439384                       # Number of branch fetches per cycle (Ratio)
system.cpu.fetch.rate                        1.794909                       # Number of inst fetches per cycle ((Count/Cycle))
system.cpu.icache.demandHits::cpu.inst        4744739                       # number of demand (read+write) hits (Count)
system.cpu.icache.demandHits::total           4744739                       # number of demand (read+write) hits (Count)
system.cpu.icache.overallHits::cpu.inst       4744739                       # number of overall hits (Count)
system.cpu.icache.overallHits::total          4744739                       # number of overall hits (Count)
system.cpu.icache.demandMisses::cpu.inst        35407                       # number of demand (read+write) misses (Count)
system.cpu.icache.demandMisses::total           35407                       # number of demand (read+write) misses (Count)
system.cpu.icache.overallMisses::cpu.inst        35407                       # number of overall misses (Count)
system.cpu.icache.overallMisses::total          35407                       # number of overall misses (Count)
system.cpu.icache.demandMissLatency::cpu.inst    724095499                       # number of demand (read+write) miss ticks (Tick)
system.cpu.icache.demandMissLatency::total    724095499                       # number of demand (read+write) miss ticks (Tick)
system.cpu.icache.overallMissLatency::cpu.inst    724095499                       # number of overall miss ticks (Tick)
system.cpu.icache.overallMissLatency::total    724095499                       # number of overall miss ticks (Tick)
system.cpu.icache.demandAccesses::cpu.inst      4780146                       # number of demand (read+write) accesses (Count)
system.cpu.icache.demandAccesses::total       4780146                       # number of demand (read+write) accesses (Count)
system.cpu.icache.overallAccesses::cpu.inst      4780146                       # number of overall (read+write) accesses (Count)
system.cpu.icache.overallAccesses::total      4780146                       # number of overall (read+write) accesses (Count)
system.cpu.icache.demandMissRate::cpu.inst     0.007407                       # miss rate for demand accesses (Ratio)
system.cpu.icache.demandMissRate::total      0.007407                       # miss rate for demand accesses (Ratio)
system.cpu.icache.overallMissRate::cpu.inst     0.007407                       # miss rate for overall accesses (Ratio)
system.cpu.icache.overallMissRate::total     0.007407                       # miss rate for overall accesses (Ratio)
system.cpu.icache.demandAvgMissLatency::cpu.inst 20450.631203                       # average overall miss latency ((Cycle/Count))
system.cpu.icache.demandAvgMissLatency::total 20450.631203                       # average overall miss latency ((Cycle/Count))
system.cpu.icache.overallAvgMissLatency::cpu.inst 20450.631203                       # average overall miss latency ((Cycle/Count))
system.cpu.icache.overallAvgMissLatency::total 20450.631203                       # average overall miss latency ((Cycle/Count))
system.cpu.icache.blockedCycles::no_mshrs          368                       # number of cycles access was blocked (Cycle)
system.cpu.icache.blockedCycles::no_targets            0                       # number of cycles access was blocked (Cycle)
system.cpu.icache.blockedCauses::no_mshrs            6                       # number of times access was blocked (Count)
system.cpu.icache.blockedCauses::no_targets            0                       # number of times access was blocked (Count)
system.cpu.icache.avgBlocked::no_mshrs      61.333333                       # average number of cycles each access was blocked ((Cycle/Count))
system.cpu.icache.avgBlocked::no_targets          nan                       # average number of cycles each access was blocked ((Cycle/Count))
system.cpu.icache.writebacks::writebacks        25173                       # number of writebacks (Count)
system.cpu.icache.writebacks::total             25173                       # number of writebacks (Count)
system.cpu.icache.demandMshrHits::cpu.inst         9744                       # number of demand (read+write) MSHR hits (Count)
system.cpu.icache.demandMshrHits::total          9744                       # number of demand (read+write) MSHR hits (Count)
system.cpu.icache.overallMshrHits::cpu.inst         9744                       # number of overall MSHR hits (Count)
system.cpu.icache.overallMshrHits::total         9744                       # number of overall MSHR hits (Count)
system.cpu.icache.demandMshrMisses::cpu.inst        25663                       # number of demand (read+write) MSHR misses (Count)
system.cpu.icache.demandMshrMisses::total        25663                       # number of demand (read+write) MSHR misses (Count)
system.cpu.icache.overallMshrMisses::cpu.inst        25663                       # number of overall MSHR misses (Count)
system.cpu.icache.overallMshrMisses::total        25663                       # number of overall MSHR misses (Count)
system.cpu.icache.demandMshrMissLatency::cpu.inst    593388499                       # number of demand (read+write) MSHR miss ticks (Tick)
system.cpu.icache.demandMshrMissLatency::total    593388499                       # number of demand (read+write) MSHR miss ticks (Tick)
system.cpu.icache.overallMshrMissLatency::cpu.inst    593388499                       # number of overall MSHR miss ticks (Tick)
system.cpu.icache.overallMshrMissLatency::total    593388499                       # number of overall MSHR miss ticks (Tick)
system.cpu.icache.demandMshrMissRate::cpu.inst     0.005369                       # mshr miss ratio for demand accesses (Ratio)
system.cpu.icache.demandMshrMissRate::total     0.005369                       # mshr miss ratio for demand accesses (Ratio)
system.cpu.icache.overallMshrMissRate::cpu.inst     0.005369                       # mshr miss ratio for overall accesses (Ratio)
system.cpu.icache.overallMshrMissRate::total     0.005369                       # mshr miss ratio for overall accesses (Ratio)
system.cpu.icache.demandAvgMshrMissLatency::cpu.inst 23122.335619                       # average overall mshr miss latency ((Cycle/Count))
system.cpu.icache.demandAvgMshrMissLatency::total 23122.335619                       # average overall mshr miss latency ((Cycle/Count))
system.cpu.icache.overallAvgMshrMissLatency::cpu.inst 23122.335619                       # average overall mshr miss latency ((Cycle/Count))
system.cpu.icache.overallAvgMshrMissLatency::total 23122.335619                       # average overall mshr miss latency ((Cycle/Count))
system.cpu.icache.replacements                  25173                       # number of replacements (Count)
system.cpu.icache.ReadReq.hits::cpu.inst      4744739                       # number of ReadReq hits (Count)
system.cpu.icache.ReadReq.hits::total         4744739                       # number of ReadReq hits (Count)
system.cpu.icache.ReadReq.misses::cpu.inst        35407                       # number of ReadReq misses (Count)
system.cpu.icache.ReadReq.misses::total         35407                       # number of ReadReq misses (Count)
system.cpu.icache.ReadReq.missLatency::cpu.inst    724095499                       # number of ReadReq miss ticks (Tick)
system.cpu.icache.ReadReq.missLatency::total    724095499                       # number of ReadReq miss ticks (Tick)
system.cpu.icache.ReadReq.accesses::cpu.inst      4780146                       # number of ReadReq accesses(hits+misses) (Count)
system.cpu.icache.ReadReq.accesses::total      4780146                       # number of ReadReq accesses(hits+misses) (Count)
system.cpu.icache.ReadReq.missRate::cpu.inst     0.007407                       # miss rate for ReadReq accesses (Ratio)
system.cpu.icache.ReadReq.missRate::total     0.007407                       # miss rate for ReadReq accesses (Ratio)
system.cpu.icache.ReadReq.avgMissLatency::cpu.inst 20450.631203                       # average ReadReq miss latency ((Tick/Count))
system.cpu.icache.ReadReq.avgMissLatency::total 20450.631203                       # average ReadReq miss latency ((Tick/Count))
system.cpu.icache.ReadReq.mshrHits::cpu.inst         9744                       # number of ReadReq MSHR hits (Count)
system.cpu.icache.ReadReq.mshrHits::total         9744                       # number of ReadReq MSHR hits (Count)
system.cpu.icache.ReadReq.mshrMisses::cpu.inst        25663                       # number of ReadReq MSHR misses (Count)
system.cpu.icache.ReadReq.mshrMisses::total        25663                       # number of ReadReq MSHR misses (Count)
system.cpu.icache.ReadReq.mshrMissLatency::cpu.inst    593388499                       # number of ReadReq MSHR miss ticks (Tick)
system.cpu.icache.ReadReq.mshrMissLatency::total    593388499                       # number of ReadReq MSHR miss ticks (Tick)
system.cpu.icache.ReadReq.mshrMissRate::cpu.inst     0.005369                       # mshr miss rate for ReadReq accesses (Ratio)
system.cpu.icache.ReadReq.mshrMissRate::total     0.005369                       # mshr miss rate for ReadReq accesses (Ratio)
system.cpu.icache.ReadReq.avgMshrMissLatency::cpu.inst 23122.335619                       # average ReadReq mshr miss latency ((Tick/Count))
system.cpu.icache.ReadReq.avgMshrMissLatency::total 23122.335619                       # average ReadReq mshr miss latency ((Tick/Count))
system.cpu.icache.power_state.pwrStateResidencyTicks::UNDEFINED  10549231000                       # Cumulative time (in ticks) in various power states (Tick)
system.cpu.icache.tags.tagsInUse           449.004605                       # Average ticks per tags in use ((Tick/Count))
system.cpu.icache.tags.totalRefs              4770401                       # Total number of references to valid blocks. (Count)
system.cpu.icache.tags.sampledRefs              25662                       # Sample count of references to valid blocks. (Count)
system.cpu.icache.tags.avgRefs             185.893578                       # Average number of references to valid blocks. ((Count/Count))
system.cpu.icache.tags.warmupTick               77000                       # The tick when the warmup percentage was hit. (Tick)
system.cpu.icache.tags.occupancies::cpu.inst   449.004605                       # Average occupied blocks per tick, per requestor ((Count/Tick))
system.cpu.icache.tags.avgOccs::cpu.inst     0.876962                       # Average percentage of cache occupancy ((Ratio/Tick))
system.cpu.icache.tags.avgOccs::total        0.876962                       # Average percentage of cache occupancy ((Ratio/Tick))
system.cpu.icache.tags.occupanciesTaskId::1024          489                       # Occupied blocks per task id (Count)
system.cpu.icache.tags.ageTaskId_1024::0          121                       # Occupied blocks per task id, per block age (Count)
system.cpu.icache.tags.ageTaskId_1024::1           19                       # Occupied blocks per task id, per block age (Count)
system.cpu.icache.tags.ageTaskId_1024::3          179                       # Occupied blocks per task id, per block age (Count)
system.cpu.icache.tags.ageTaskId_1024::4          170                       # Occupied blocks per task id, per block age (Count)
system.cpu.icache.tags.ratioOccsTaskId::1024     0.955078                       # Ratio of occupied blocks and all blocks, per task id (Ratio)
system.cpu.icache.tags.tagAccesses            9585954                       # Number of tag accesses (Count)
system.cpu.icache.tags.dataAccesses           9585954                       # Number of data accesses (Count)
system.cpu.icache.tags.power_state.pwrStateResidencyTicks::UNDEFINED  10549231000                       # Cumulative time (in ticks) in various power states (Tick)
system.cpu.iew.idleCycles                           0                       # Number of cycles IEW is idle (Cycle)
system.cpu.iew.squashCycles                    142520                       # Number of cycles IEW is squashing (Cycle)
system.cpu.iew.blockCycles                    1031393                       # Number of cycles IEW is blocking (Cycle)
system.cpu.iew.unblockCycles                   132745                       # Number of cycles IEW is unblocking (Cycle)
system.cpu.iew.dispatchedInsts               73020637                       # Number of instructions dispatched to IQ (Count)
system.cpu.iew.dispSquashedInsts                40169                       # Number of squashed instructions skipped by dispatch (Count)
system.cpu.iew.dispLoadInsts                  7656168                       # Number of dispatched load instructions (Count)
system.cpu.iew.dispStoreInsts                 5302165                       # Number of dispatched store instructions (Count)
system.cpu.iew.dispNonSpecInsts                    17                       # Number of dispatched non-speculative instructions (Count)
system.cpu.iew.iqFullEvents                     18335                       # Number of times the IQ has become full, causing a stall (Count)
system.cpu.iew.lsqFullEvents                   108039                       # Number of times the LSQ has become full, causing a stall (Count)
system.cpu.iew.memOrderViolationEvents            330                       # Number of memory order violations (Count)
system.cpu.iew.predictedTakenIncorrect          69427                       # Number of branches that were predicted taken incorrectly (Count)
system.cpu.iew.predictedNotTakenIncorrect        86511                       # Number of branches that were predicted not taken incorrectly (Count)
system.cpu.iew.branchMispredicts               155938                       # Number of branch mispredicts detected at execute (Count)
system.cpu.iew.instsToCommit                 71269416                       # Cumulative count of insts sent to commit (Count)
system.cpu.iew.writebackCount                71211492                       # Cumulative count of insts written-back (Count)
system.cpu.iew.producerInst                  49742922                       # Number of instructions producing a value (Count)
system.cpu.iew.consumerInst                  89586716                       # Number of instructions consuming a value (Count)
system.cpu.iew.wbRate                        3.375198                       # Insts written-back per cycle ((Count/Cycle))
system.cpu.iew.wbFanout                      0.555249                       # Average fanout of values written-back ((Count/Count))
system.cpu.interrupts.clk_domain.clock           8000                       # Clock period in ticks (Tick)
system.cpu.itb_walker_cache.blockedCycles::no_mshrs            0                       # number of cycles access was blocked (Cycle)
system.cpu.itb_walker_cache.blockedCycles::no_targets            0                       # number of cycles access was blocked (Cycle)
system.cpu.itb_walker_cache.blockedCauses::no_mshrs            0                       # number of times access was blocked (Count)
system.cpu.itb_walker_cache.blockedCauses::no_targets            0                       # number of times access was blocked (Count)
system.cpu.itb_walker_cache.avgBlocked::no_mshrs          nan                       # average number of cycles each access was blocked ((Cycle/Count))
system.cpu.itb_walker_cache.avgBlocked::no_targets          nan                       # average number of cycles each access was blocked ((Cycle/Count))
system.cpu.itb_walker_cache.replacements            0                       # number of replacements (Count)
system.cpu.itb_walker_cache.power_state.pwrStateResidencyTicks::UNDEFINED  10549231000                       # Cumulative time (in ticks) in various power states (Tick)
system.cpu.itb_walker_cache.tags.tagsInUse            0                       # Average ticks per tags in use ((Tick/Count))
system.cpu.itb_walker_cache.tags.totalRefs            0                       # Total number of references to valid blocks. (Count)
system.cpu.itb_walker_cache.tags.sampledRefs            0                       # Sample count of references to valid blocks. (Count)
system.cpu.itb_walker_cache.tags.avgRefs          nan                       # Average number of references to valid blocks. ((Count/Count))
system.cpu.itb_walker_cache.tags.warmupTick            0                       # The tick when the warmup percentage was hit. (Tick)
system.cpu.itb_walker_cache.tags.tagAccesses            0                       # Number of tag accesses (Count)
system.cpu.itb_walker_cache.tags.dataAccesses            0                       # Number of data accesses (Count)
system.cpu.itb_walker_cache.tags.power_state.pwrStateResidencyTicks::UNDEFINED  10549231000                       # Cumulative time (in ticks) in various power states (Tick)
system.cpu.lsq0.forwLoads                      941994                       # Number of loads that had data forwarded from stores (Count)
system.cpu.lsq0.squashedLoads                  303075                       # Number of loads squashed (Count)
system.cpu.lsq0.ignoredResponses                   21                       # Number of memory responses ignored because the instruction is squashed (Count)
system.cpu.lsq0.memOrderViolation                 330                       # Number of memory ordering violations (Count)
system.cpu.lsq0.squashedStores                 189740                       # Number of stores squashed (Count)
system.cpu.lsq0.rescheduledLoads                    1                       # Number of loads that were rescheduled (Count)
system.cpu.lsq0.blockedByCache                    751                       # Number of times an access to memory failed due to the cache being blocked (Count)
system.cpu.lsq0.loadToUse::samples            7353093                       # Distribution of cycle latency between the first time a load is issued and its completion (Unspecified)
system.cpu.lsq0.loadToUse::mean              3.620145                       # Distribution of cycle latency between the first time a load is issued and its completion (Unspecified)
system.cpu.lsq0.loadToUse::stdev             8.588828                       # Distribution of cycle latency between the first time a load is issued and its completion (Unspecified)
system.cpu.lsq0.loadToUse::0-9                7320924     99.56%     99.56% # Distribution of cycle latency between the first time a load is issued and its completion (Unspecified)
system.cpu.lsq0.loadToUse::10-19                  706      0.01%     99.57% # Distribution of cycle latency between the first time a load is issued and its completion (Unspecified)
system.cpu.lsq0.loadToUse::20-29                  518      0.01%     99.58% # Distribution of cycle latency between the first time a load is issued and its completion (Unspecified)
system.cpu.lsq0.loadToUse::30-39                  303      0.00%     99.58% # Distribution of cycle latency between the first time a load is issued and its completion (Unspecified)
system.cpu.lsq0.loadToUse::40-49                  324      0.00%     99.59% # Distribution of cycle latency between the first time a load is issued and its completion (Unspecified)
system.cpu.lsq0.loadToUse::50-59                  271      0.00%     99.59% # Distribution of cycle latency between the first time a load is issued and its completion (Unspecified)
system.cpu.lsq0.loadToUse::60-69                  354      0.00%     99.60% # Distribution of cycle latency between the first time a load is issued and its completion (Unspecified)
[...]
system.mem_ctrls.dram.bwWrite::total         46162227                       # Write bandwidth from this memory ((Byte/Second))
system.mem_ctrls.dram.bwTotal::writebacks     46162227                       # Total bandwidth to/from this memory ((Byte/Second))
system.mem_ctrls.dram.bwTotal::cpu.inst     155686040                       # Total bandwidth to/from this memory ((Byte/Second))
system.mem_ctrls.dram.bwTotal::cpu.data      80233336                       # Total bandwidth to/from this memory ((Byte/Second))
system.mem_ctrls.dram.bwTotal::total        282081604                       # Total bandwidth to/from this memory ((Byte/Second))
system.mem_ctrls.dram.readBursts                14120                       # Number of DRAM read bursts (Count)
system.mem_ctrls.dram.writeBursts                8145                       # Number of DRAM write bursts (Count)
system.mem_ctrls.dram.perBankRdBursts::0         1201                       # Per bank write bursts (Count)
system.mem_ctrls.dram.perBankRdBursts::1         1072                       # Per bank write bursts (Count)
system.mem_ctrls.dram.perBankRdBursts::2          998                       # Per bank write bursts (Count)
system.mem_ctrls.dram.perBankRdBursts::3          939                       # Per bank write bursts (Count)
system.mem_ctrls.dram.perBankRdBursts::4          880                       # Per bank write bursts (Count)
system.mem_ctrls.dram.perBankRdBursts::5          731                       # Per bank write bursts (Count)
system.mem_ctrls.dram.perBankRdBursts::6          766                       # Per bank write bursts (Count)
system.mem_ctrls.dram.perBankRdBursts::7          717                       # Per bank write bursts (Count)
system.mem_ctrls.dram.perBankRdBursts::8          985                       # Per bank write bursts (Count)
system.mem_ctrls.dram.perBankRdBursts::9          810                       # Per bank write bursts (Count)
system.mem_ctrls.dram.perBankRdBursts::10          818                       # Per bank write bursts (Count)
system.mem_ctrls.dram.perBankRdBursts::11          503                       # Per bank write bursts (Count)
system.mem_ctrls.dram.perBankRdBursts::12          586                       # Per bank write bursts (Count)
system.mem_ctrls.dram.perBankRdBursts::13          946                       # Per bank write bursts (Count)
system.mem_ctrls.dram.perBankRdBursts::14         1083                       # Per bank write bursts (Count)
system.mem_ctrls.dram.perBankRdBursts::15         1085                       # Per bank write bursts (Count)
system.mem_ctrls.dram.perBankWrBursts::0          553                       # Per bank write bursts (Count)
system.mem_ctrls.dram.perBankWrBursts::1          565                       # Per bank write bursts (Count)
system.mem_ctrls.dram.perBankWrBursts::2          552                       # Per bank write bursts (Count)
system.mem_ctrls.dram.perBankWrBursts::3          532                       # Per bank write bursts (Count)
system.mem_ctrls.dram.perBankWrBursts::4          546                       # Per bank write bursts (Count)
system.mem_ctrls.dram.perBankWrBursts::5          559                       # Per bank write bursts (Count)
system.mem_ctrls.dram.perBankWrBursts::6          551                       # Per bank write bursts (Count)
system.mem_ctrls.dram.perBankWrBursts::7          491                       # Per bank write bursts (Count)
system.mem_ctrls.dram.perBankWrBursts::8          620                       # Per bank write bursts (Count)
system.mem_ctrls.dram.perBankWrBursts::9          470                       # Per bank write bursts (Count)
system.mem_ctrls.dram.perBankWrBursts::10          512                       # Per bank write bursts (Count)
system.mem_ctrls.dram.perBankWrBursts::11          306                       # Per bank write bursts (Count)
system.mem_ctrls.dram.perBankWrBursts::12          284                       # Per bank write bursts (Count)
system.mem_ctrls.dram.perBankWrBursts::13          499                       # Per bank write bursts (Count)
system.mem_ctrls.dram.perBankWrBursts::14          529                       # Per bank write bursts (Count)
system.mem_ctrls.dram.perBankWrBursts::15          576                       # Per bank write bursts (Count)
system.mem_ctrls.dram.totQLat               132394750                       # Total ticks spent queuing (Tick)
system.mem_ctrls.dram.totBusLat              70600000                       # Total ticks spent in databus transfers (Tick)
system.mem_ctrls.dram.totMemAccLat          397144750                       # Total ticks spent from burst creation until serviced by the DRAM (Tick)
system.mem_ctrls.dram.avgQLat                 9376.40                       # Average queueing delay per DRAM burst ((Tick/Count))
system.mem_ctrls.dram.avgBusLat               5000.00                       # Average bus latency per DRAM burst ((Tick/Count))
system.mem_ctrls.dram.avgMemAccLat           28126.40                       # Average memory access latency per DRAM burst ((Tick/Count))
system.mem_ctrls.dram.readRowHits               11539                       # Number of row buffer hits during reads (Count)
system.mem_ctrls.dram.writeRowHits               7053                       # Number of row buffer hits during writes (Count)
system.mem_ctrls.dram.readRowHitRate            81.72                       # Row buffer hit rate for reads (Ratio)
system.mem_ctrls.dram.writeRowHitRate           86.59                       # Row buffer hit rate for writes (Ratio)
system.mem_ctrls.dram.bytesPerActivate::samples         3660                       # Bytes accessed per row activation (Byte)
system.mem_ctrls.dram.bytesPerActivate::mean   388.546448                       # Bytes accessed per row activation (Byte)
system.mem_ctrls.dram.bytesPerActivate::gmean   259.464777                       # Bytes accessed per row activation (Byte)
system.mem_ctrls.dram.bytesPerActivate::stdev   333.807863                       # Bytes accessed per row activation (Byte)
system.mem_ctrls.dram.bytesPerActivate::0-127          631     17.24%     17.24% # Bytes accessed per row activation (Byte)
system.mem_ctrls.dram.bytesPerActivate::128-255         1122     30.66%     47.90% # Bytes accessed per row activation (Byte)
system.mem_ctrls.dram.bytesPerActivate::256-383          252      6.89%     54.78% # Bytes accessed per row activation (Byte)
system.mem_ctrls.dram.bytesPerActivate::384-511          683     18.66%     73.44% # Bytes accessed per row activation (Byte)
system.mem_ctrls.dram.bytesPerActivate::512-639          121      3.31%     76.75% # Bytes accessed per row activation (Byte)
system.mem_ctrls.dram.bytesPerActivate::640-767          118      3.22%     79.97% # Bytes accessed per row activation (Byte)
system.mem_ctrls.dram.bytesPerActivate::768-895           97      2.65%     82.62% # Bytes accessed per row activation (Byte)
system.mem_ctrls.dram.bytesPerActivate::896-1023           84      2.30%     84.92% # Bytes accessed per row activation (Byte)
system.mem_ctrls.dram.bytesPerActivate::1024-1151          552     15.08%    100.00% # Bytes accessed per row activation (Byte)
system.mem_ctrls.dram.bytesPerActivate::total         3660                       # Bytes accessed per row activation (Byte)
system.mem_ctrls.dram.bytesRead                903680                       # Total bytes read (Byte)
system.mem_ctrls.dram.bytesWritten             521280                       # Total bytes written (Byte)
system.mem_ctrls.dram.avgRdBW               85.663116                       # Average DRAM read bandwidth in MiBytes/s ((Byte/Second))
system.mem_ctrls.dram.avgWrBW               49.414028                       # Average DRAM write bandwidth in MiBytes/s ((Byte/Second))
system.mem_ctrls.dram.peakBW                 12800.00                       # Theoretical peak bandwidth in MiByte/s ((Byte/Second))
system.mem_ctrls.dram.busUtil                    1.06                       # Data bus utilization in percentage (Ratio)
system.mem_ctrls.dram.busUtilRead                0.67                       # Data bus utilization in percentage for reads (Ratio)
system.mem_ctrls.dram.busUtilWrite               0.39                       # Data bus utilization in percentage for writes (Ratio)
system.mem_ctrls.dram.pageHitRate               83.50                       # Row buffer hit rate, read and write combined (Ratio)
system.mem_ctrls.dram.power_state.pwrStateResidencyTicks::UNDEFINED  10549231000                       # Cumulative time (in ticks) in various power states (Tick)
system.mem_ctrls.dram.rank0.actEnergy        13637400                       # Energy for activate commands per rank (pJ) (Joule)
system.mem_ctrls.dram.rank0.preEnergy         7221885                       # Energy for precharge commands per rank (pJ) (Joule)
system.mem_ctrls.dram.rank0.readEnergy       52150560                       # Energy for read commands per rank (pJ) (Joule)
system.mem_ctrls.dram.rank0.writeEnergy      22701780                       # Energy for write commands per rank (pJ) (Joule)
system.mem_ctrls.dram.rank0.refreshEnergy 832222560.000000                       # Energy for refresh commands per rank (pJ) (Joule)
system.mem_ctrls.dram.rank0.actBackEnergy   2015938380                       # Energy for active background per rank (pJ) (Joule)
system.mem_ctrls.dram.rank0.preBackEnergy   2353272480                       # Energy for precharge background per rank (pJ) (Joule)
system.mem_ctrls.dram.rank0.actPowerDownEnergy            0                       # Energy for active power-down per rank (pJ) (Joule)
system.mem_ctrls.dram.rank0.prePowerDownEnergy            0                       # Energy for precharge power-down per rank (pJ) (Joule)
system.mem_ctrls.dram.rank0.selfRefreshEnergy            0                       # Energy for self refresh per rank (pJ) (Joule)
system.mem_ctrls.dram.rank0.totalEnergy    5297145045                       # Total energy per rank (pJ) (Joule)
system.mem_ctrls.dram.rank0.averagePower   502.135658                       # Core power per rank (mW) (Watt)
system.mem_ctrls.dram.rank0.totalIdleTime            0                       # Total Idle time Per DRAM Rank (Tick)
system.mem_ctrls.dram.rank0.pwrStateTime::IDLE   6097180500                       # Time in different power states (Tick)
system.mem_ctrls.dram.rank0.pwrStateTime::REF    352040000                       # Time in different power states (Tick)
system.mem_ctrls.dram.rank0.pwrStateTime::SREF            0                       # Time in different power states (Tick)
system.mem_ctrls.dram.rank0.pwrStateTime::PRE_PDN            0                       # Time in different power states (Tick)
system.mem_ctrls.dram.rank0.pwrStateTime::ACT   4100010500                       # Time in different power states (Tick)
system.mem_ctrls.dram.rank0.pwrStateTime::ACT_PDN            0                       # Time in different power states (Tick)
system.mem_ctrls.dram.rank1.actEnergy        12587820                       # Energy for activate commands per rank (pJ) (Joule)
system.mem_ctrls.dram.rank1.preEnergy         6667815                       # Energy for precharge commands per rank (pJ) (Joule)
system.mem_ctrls.dram.rank1.readEnergy       48666240                       # Energy for read commands per rank (pJ) (Joule)
system.mem_ctrls.dram.rank1.writeEnergy      19815120                       # Energy for write commands per rank (pJ) (Joule)
system.mem_ctrls.dram.rank1.refreshEnergy 832222560.000000                       # Energy for refresh commands per rank (pJ) (Joule)
system.mem_ctrls.dram.rank1.actBackEnergy   1976418000                       # Energy for active background per rank (pJ) (Joule)
system.mem_ctrls.dram.rank1.preBackEnergy   2386552800                       # Energy for precharge background per rank (pJ) (Joule)
system.mem_ctrls.dram.rank1.actPowerDownEnergy            0                       # Energy for active power-down per rank (pJ) (Joule)
system.mem_ctrls.dram.rank1.prePowerDownEnergy            0                       # Energy for precharge power-down per rank (pJ) (Joule)
system.mem_ctrls.dram.rank1.selfRefreshEnergy            0                       # Energy for self refresh per rank (pJ) (Joule)
system.mem_ctrls.dram.rank1.totalEnergy    5282930355                       # Total energy per rank (pJ) (Joule)
system.mem_ctrls.dram.rank1.averagePower   500.788195                       # Core power per rank (mW) (Watt)
system.mem_ctrls.dram.rank1.totalIdleTime            0                       # Total Idle time Per DRAM Rank (Tick)
system.mem_ctrls.dram.rank1.pwrStateTime::IDLE   6186282500                       # Time in different power states (Tick)
system.mem_ctrls.dram.rank1.pwrStateTime::REF    352040000                       # Time in different power states (Tick)
system.mem_ctrls.dram.rank1.pwrStateTime::SREF            0                       # Time in different power states (Tick)
system.mem_ctrls.dram.rank1.pwrStateTime::PRE_PDN            0                       # Time in different power states (Tick)
system.mem_ctrls.dram.rank1.pwrStateTime::ACT   4010908500                       # Time in different power states (Tick)
system.mem_ctrls.dram.rank1.pwrStateTime::ACT_PDN            0                       # Time in different power states (Tick)
system.mem_ctrls.power_state.pwrStateResidencyTicks::UNDEFINED  10549231000                       # Cumulative time (in ticks) in various power states (Tick)
system.membus.transDist::ReadResp               35532                       # Transaction distribution (Count)
system.membus.transDist::WritebackDirty          7609                       # Transaction distribution (Count)
system.membus.transDist::WritebackClean         25173                       # Transaction distribution (Count)
system.membus.transDist::CleanEvict              4592                       # Transaction distribution (Count)
system.membus.transDist::ReadExReq               3355                       # Transaction distribution (Count)
system.membus.transDist::ReadExResp              3355                       # Transaction distribution (Count)
system.membus.transDist::ReadCleanReq           25663                       # Transaction distribution (Count)
system.membus.transDist::ReadSharedReq           9870                       # Transaction distribution (Count)
system.membus.pktCount_system.cpu.icache.mem_side_port::system.mem_ctrls.port        76498                       # Packet count per connected requestor and responder (Count)
system.membus.pktCount_system.cpu.icache.mem_side_port::total        76498                       # Packet count per connected requestor and responder (Count)
system.membus.pktCount_system.cpu.dcache.mem_side_port::system.mem_ctrls.port        38651                       # Packet count per connected requestor and responder (Count)
system.membus.pktCount_system.cpu.dcache.mem_side_port::total        38651                       # Packet count per connected requestor and responder (Count)
system.membus.pktCount::total                  115149                       # Packet count per connected requestor and responder (Count)
system.membus.pktSize_system.cpu.icache.mem_side_port::system.mem_ctrls.port      3253440                       # Cumulative packet size per connected requestor and responder (Byte)
system.membus.pktSize_system.cpu.icache.mem_side_port::total      3253440                       # Cumulative packet size per connected requestor and responder (Byte)
system.membus.pktSize_system.cpu.dcache.mem_side_port::system.mem_ctrls.port      1333376                       # Cumulative packet size per connected requestor and responder (Byte)
system.membus.pktSize_system.cpu.dcache.mem_side_port::total      1333376                       # Cumulative packet size per connected requestor and responder (Byte)
system.membus.pktSize::total                  4586816                       # Cumulative packet size per connected requestor and responder (Byte)
system.membus.snoops                                0                       # Total snoops (Count)
system.membus.snoopTraffic                          0                       # Total snoop traffic (Byte)
system.membus.snoopFanout::samples              38888                       # Request fanout histogram (Count)
system.membus.snoopFanout::mean              0.000026                       # Request fanout histogram (Count)
system.membus.snoopFanout::stdev             0.005071                       # Request fanout histogram (Count)
system.membus.snoopFanout::underflows               0      0.00%      0.00% # Request fanout histogram (Count)
system.membus.snoopFanout::0                    38887    100.00%    100.00% # Request fanout histogram (Count)
system.membus.snoopFanout::1                        1      0.00%    100.00% # Request fanout histogram (Count)
system.membus.snoopFanout::2                        0      0.00%    100.00% # Request fanout histogram (Count)
system.membus.snoopFanout::3                        0      0.00%    100.00% # Request fanout histogram (Count)
system.membus.snoopFanout::4                        0      0.00%    100.00% # Request fanout histogram (Count)
system.membus.snoopFanout::overflows                0      0.00%    100.00% # Request fanout histogram (Count)
system.membus.snoopFanout::min_value                0                       # Request fanout histogram (Count)
system.membus.snoopFanout::max_value                1                       # Request fanout histogram (Count)
system.membus.snoopFanout::total                38888                       # Request fanout histogram (Count)
system.membus.power_state.pwrStateResidencyTicks::UNDEFINED  10549231000                       # Cumulative time (in ticks) in various power states (Tick)
system.membus.reqLayer2.occupancy           216600500                       # Layer occupancy (ticks) (Tick)
system.membus.reqLayer2.utilization               0.0                       # Layer utilization (Ratio)
system.membus.respLayer1.occupancy          128650500                       # Layer occupancy (ticks) (Tick)
system.membus.respLayer1.utilization              0.0                       # Layer utilization (Ratio)
system.membus.respLayer2.occupancy           69961750                       # Layer occupancy (ticks) (Tick)
system.membus.respLayer2.utilization              0.0                       # Layer utilization (Ratio)
system.membus.snoop_filter.totRequests          76262                       # Total number of requests made to the snoop filter. (Count)
system.membus.snoop_filter.hitSingleRequests        37375                       # Number of requests hitting in the snoop filter with a single holder of the requested data. (Count)
system.membus.snoop_filter.hitMultiRequests            0                       # Number of requests hitting in the snoop filter with multiple (>1) holders of the requested data. (Count)
system.membus.snoop_filter.totSnoops                0                       # Total number of snoops made to the snoop filter. (Count)
system.membus.snoop_filter.hitSingleSnoops            0                       # Number of snoops hitting in the snoop filter with a single holder of the requested data. (Count)
system.membus.snoop_filter.hitMultiSnoops            0                       # Number of snoops hitting in the snoop filter with multiple (>1) holders of the requested data. (Count)
system.voltage_domain.voltage                       1                       # Voltage in Volts (Volt)
system.workload.inst.arm                            0                       # number of arm instructions executed (Count)
system.workload.inst.quiesce                        0                       # number of quiesce instructions executed (Count)

---------- End Simulation Statistics   ----------
