
---------- Begin Simulation Statistics ----------
simSeconds                                   0.059321                       # Number of seconds simulated (Second)
simTicks                                  59321448000                       # Number of ticks simulated (Tick)
finalTick                                 59321448000                       # Number of ticks from beginning of simulation (restored from checkpoints and never reset) (Tick)
simFreq                                  1000000000000                       # The number of ticks per simulated second ((Tick/Second))
hostSeconds                                     99.88                       # Real time elapsed on the host (Second)
hostTickRate                                593937993                       # The number of ticks simulated per host second (ticks/s) ((Tick/Second))
hostMemory                                     664888                       # Number of bytes of host memory used (Byte)
simInsts                                     34936314                       # Number of instructions simulated (Count)
simOps                                       69040940                       # Number of ops (including micro ops) simulated (Count)
hostInstRate                                   349789                       # Simulator instruction rate (inst/s) ((Count/Second))
hostOpRate                                     691251                       # Simulator op (including micro ops) rate (op/s) ((Count/Second))
system.clk_domain.clock                          1000                       # Clock period in ticks (Tick)
system.cpu.numCycles                        118642896                       # Number of cpu cycles simulated (Cycle)
system.cpu.numWorkItemsStarted                      0                       # Number of work items this cpu started (Count)
system.cpu.numWorkItemsCompleted                    0                       # Number of work items this cpu completed (Count)
system.cpu.numInsts                          34936314                       # Number of instructions committed (Count)
system.cpu.numOps                            69040940                       # Number of ops (including micro ops) committed (Count)
system.cpu.numDiscardedOps                   18693781                       # Number of ops (including micro ops) which were discarded before commit (Count)
system.cpu.numFetchSuspends                         0                       # Number of times Execute suspended instruction fetching (Count)
system.cpu.cpi                               3.395976                       # CPI: cycles per instruction ((Cycle/Count))
system.cpu.ipc                               0.294466                       # IPC: instructions per cycle ((Count/Cycle))
system.cpu.committedInstType_0::No_OpClass       850896      1.23%      1.23% # Class of committed instruction (Count)
system.cpu.committedInstType_0::IntAlu       53148416     76.98%     78.21% # Class of committed instruction (Count)
system.cpu.committedInstType_0::IntMult         89549      0.13%     78.34% # Class of committed instruction (Count)
system.cpu.committedInstType_0::IntDiv         882475      1.28%     79.62% # Class of committed instruction (Count)
system.cpu.committedInstType_0::FloatAdd       360603      0.52%     80.14% # Class of committed instruction (Count)
system.cpu.committedInstType_0::FloatCmp            0      0.00%     80.14% # Class of committed instruction (Count)
system.cpu.committedInstType_0::FloatCvt            0      0.00%     80.14% # Class of committed instruction (Count)
system.cpu.committedInstType_0::FloatMult            0      0.00%     80.14% # Class of committed instruction (Count)
system.cpu.committedInstType_0::FloatMultAcc            0      0.00%     80.14% # Class of committed instruction (Count)
system.cpu.committedInstType_0::FloatDiv            0      0.00%     80.14% # Class of committed instruction (Count)
system.cpu.committedInstType_0::FloatMisc            0      0.00%     80.14% # Class of committed instruction (Count)
system.cpu.committedInstType_0::FloatSqrt            0      0.00%     80.14% # Class of committed instruction (Count)
system.cpu.committedInstType_0::SimdAdd             0      0.00%     80.14% # Class of committed instruction (Count)
system.cpu.committedInstType_0::SimdAddAcc            0      0.00%     80.14% # Class of committed instruction (Count)
system.cpu.committedInstType_0::SimdAlu        279104      0.40%     80.55% # Class of committed instruction (Count)
system.cpu.committedInstType_0::SimdCmp           336      0.00%     80.55% # Class of committed instruction (Count)
system.cpu.committedInstType_0::SimdCvt        164462      0.24%     80.79% # Class of committed instruction (Count)
system.cpu.committedInstType_0::SimdMisc       242487      0.35%     81.14% # Class of committed instruction (Count)
system.cpu.committedInstType_0::SimdMult            0      0.00%     81.14% # Class of committed instruction (Count)
system.cpu.committedInstType_0::SimdMultAcc            0      0.00%     81.14% # Class of committed instruction (Count)
system.cpu.committedInstType_0::SimdShift            0      0.00%     81.14% # Class of committed instruction (Count)
system.cpu.committedInstType_0::SimdShiftAcc            0      0.00%     81.14% # Class of committed instruction (Count)
system.cpu.committedInstType_0::SimdDiv             0      0.00%     81.14% # Class of committed instruction (Count)
system.cpu.committedInstType_0::SimdSqrt            0      0.00%     81.14% # Class of committed instruction (Count)
system.cpu.committedInstType_0::SimdFloatAdd       278528      0.40%     81.54% # Class of committed instruction (Count)
system.cpu.committedInstType_0::SimdFloatAlu            0      0.00%     81.54% # Class of committed instruction (Count)
system.cpu.committedInstType_0::SimdFloatCmp            0      0.00%     81.54% # Class of committed instruction (Count)
system.cpu.committedInstType_0::SimdFloatCvt        16384      0.02%     81.56% # Class of committed instruction (Count)
system.cpu.committedInstType_0::SimdFloatDiv            0      0.00%     81.56% # Class of committed instruction (Count)
system.cpu.committedInstType_0::SimdFloatMisc            0      0.00%     81.56% # Class of committed instruction (Count)
system.cpu.committedInstType_0::SimdFloatMult       262144      0.38%     81.94% # Class of committed instruction (Count)
system.cpu.committedInstType_0::SimdFloatMultAcc            0      0.00%     81.94% # Class of committed instruction (Count)
system.cpu.committedInstType_0::SimdFloatSqrt            0      0.00%     81.94% # Class of committed instruction (Count)
system.cpu.committedInstType_0::SimdReduceAdd            0      0.00%     81.94% # Class of committed instruction (Count)
system.cpu.committedInstType_0::SimdReduceAlu            0      0.00%     81.94% # Class of committed instruction (Count)
system.cpu.committedInstType_0::SimdReduceCmp            0      0.00%     81.94% # Class of committed instruction (Count)
system.cpu.committedInstType_0::SimdFloatReduceAdd            0      0.00%     81.94% # Class of committed instruction (Count)
system.cpu.committedInstType_0::SimdFloatReduceCmp            0      0.00%     81.94% # Class of committed instruction (Count)
system.cpu.committedInstType_0::SimdAes             0      0.00%     81.94% # Class of committed instruction (Count)
system.cpu.committedInstType_0::SimdAesMix            0      0.00%     81.94% # Class of committed instruction (Count)
system.cpu.committedInstType_0::SimdSha1Hash            0      0.00%     81.94% # Class of committed instruction (Count)
system.cpu.committedInstType_0::SimdSha1Hash2            0      0.00%     81.94% # Class of committed instruction (Count)
system.cpu.committedInstType_0::SimdSha256Hash            0      0.00%     81.94% # Class of committed instruction (Count)
system.cpu.committedInstType_0::SimdSha256Hash2            0      0.00%     81.94% # Class of committed instruction (Count)
system.cpu.committedInstType_0::SimdShaSigma2            0      0.00%     81.94% # Class of committed instruction (Count)
system.cpu.committedInstType_0::SimdShaSigma3            0      0.00%     81.94% # Class of committed instruction (Count)
system.cpu.committedInstType_0::SimdPredAlu            0      0.00%     81.94% # Class of committed instruction (Count)
system.cpu.committedInstType_0::MemRead       6758209      9.79%     91.73% # Class of committed instruction (Count)
system.cpu.committedInstType_0::MemWrite      4632683      6.71%     98.44% # Class of committed instruction (Count)
system.cpu.committedInstType_0::FloatMemRead       594885      0.86%     99.31% # Class of committed instruction (Count)
system.cpu.committedInstType_0::FloatMemWrite       479779      0.69%    100.00% # Class of committed instruction (Count)
system.cpu.committedInstType_0::IprAccess            0      0.00%    100.00% # Class of committed instruction (Count)
system.cpu.committedInstType_0::InstPrefetch            0      0.00%    100.00% # Class of committed instruction (Count)
system.cpu.committedInstType_0::total        69040940                       # Class of committed instruction (Count)
system.cpu.branchPred.lookups                       0                       # Number of BP lookups (Count)
system.cpu.branchPred.condPredicted                 0                       # Number of conditional branches predicted (Count)
system.cpu.branchPred.condIncorrect                 0                       # Number of conditional branches incorrect (Count)
system.cpu.branchPred.BTBLookups                    0                       # Number of BTB lookups (Count)
system.cpu.branchPred.BTBHits                       0                       # Number of BTB hits (Count)
system.cpu.branchPred.BTBHitRatio                 nan                       # BTB Hit Ratio (Ratio)
system.cpu.branchPred.RASUsed                       0                       # Number of times the RAS was used to get a target. (Count)
system.cpu.branchPred.RASIncorrect                  0                       # Number of incorrect RAS predictions. (Count)
system.cpu.branchPred.indirectLookups               0                       # Number of indirect predictor lookups. (Count)
system.cpu.branchPred.indirectHits                  0                       # Number of indirect target hits. (Count)
system.cpu.branchPred.indirectMisses                0                       # Number of indirect misses. (Count)
system.cpu.branchPred.indirectMispredicted            0                       # Number of mispredicted indirect branches. (Count)
system.cpu.dcache.demandHits::cpu.data       14077407                       # number of demand (read+write) hits (Count)
system.cpu.dcache.demandHits::total          14077407                       # number of demand (read+write) hits (Count)
system.cpu.dcache.overallHits::cpu.data      14077407                       # number of overall hits (Count)
system.cpu.dcache.overallHits::total         14077407                       # number of overall hits (Count)
system.cpu.dcache.demandMisses::cpu.data        77313                       # number of demand (read+write) misses (Count)
system.cpu.dcache.demandMisses::total           77313                       # number of demand (read+write) misses (Count)
system.cpu.dcache.overallMisses::cpu.data        77313                       # number of overall misses (Count)
system.cpu.dcache.overallMisses::total          77313                       # number of overall misses (Count)
system.cpu.dcache.demandMissLatency::cpu.data   4158730500                       # number of demand (read+write) miss ticks (Tick)
system.cpu.dcache.demandMissLatency::total   4158730500                       # number of demand (read+write) miss ticks (Tick)
system.cpu.dcache.overallMissLatency::cpu.data   4158730500                       # number of overall miss ticks (Tick)
system.cpu.dcache.overallMissLatency::total   4158730500                       # number of overall miss ticks (Tick)
system.cpu.dcache.demandAccesses::cpu.data     14154720                       # number of demand (read+write) accesses (Count)
system.cpu.dcache.demandAccesses::total      14154720                       # number of demand (read+write) accesses (Count)
system.cpu.dcache.overallAccesses::cpu.data     14154720                       # number of overall (read+write) accesses (Count)
system.cpu.dcache.overallAccesses::total     14154720                       # number of overall (read+write) accesses (Count)
system.cpu.dcache.demandMissRate::cpu.data     0.005462                       # miss rate for demand accesses (Ratio)
system.cpu.dcache.demandMissRate::total      0.005462                       # miss rate for demand accesses (Ratio)
system.cpu.dcache.overallMissRate::cpu.data     0.005462                       # miss rate for overall accesses (Ratio)
system.cpu.dcache.overallMissRate::total     0.005462                       # miss rate for overall accesses (Ratio)
system.cpu.dcache.demandAvgMissLatency::cpu.data 53790.830779                       # average overall miss latency ((Cycle/Count))
system.cpu.dcache.demandAvgMissLatency::total 53790.830779                       # average overall miss latency ((Cycle/Count))
system.cpu.dcache.overallAvgMissLatency::cpu.data 53790.830779                       # average overall miss latency ((Cycle/Count))
system.cpu.dcache.overallAvgMissLatency::total 53790.830779                       # average overall miss latency ((Cycle/Count))
system.cpu.dcache.blockedCycles::no_mshrs            0                       # number of cycles access was blocked (Cycle)
system.cpu.dcache.blockedCycles::no_targets            0                       # number of cycles access was blocked (Cycle)
system.cpu.dcache.blockedCauses::no_mshrs            0                       # number of times access was blocked (Count)
system.cpu.dcache.blockedCauses::no_targets            0                       # number of times access was blocked (Count)
system.cpu.dcache.avgBlocked::no_mshrs            nan                       # average number of cycles each access was blocked ((Cycle/Count))
system.cpu.dcache.avgBlocked::no_targets          nan                       # average number of cycles each access was blocked ((Cycle/Count))
system.cpu.dcache.writebacks::writebacks        20827                       # number of writebacks (Count)
system.cpu.dcache.writebacks::total             20827                       # number of writebacks (Count)
system.cpu.dcache.demandMshrHits::cpu.data        23167                       # number of demand (read+write) MSHR hits (Count)
system.cpu.dcache.demandMshrHits::total         23167                       # number of demand (read+write) MSHR hits (Count)
system.cpu.dcache.overallMshrHits::cpu.data        23167                       # number of overall MSHR hits (Count)
system.cpu.dcache.overallMshrHits::total        23167                       # number of overall MSHR hits (Count)
system.cpu.dcache.demandMshrMisses::cpu.data        54146                       # number of demand (read+write) MSHR misses (Count)
system.cpu.dcache.demandMshrMisses::total        54146                       # number of demand (read+write) MSHR misses (Count)
system.cpu.dcache.overallMshrMisses::cpu.data        54146                       # number of overall MSHR misses (Count)
system.cpu.dcache.overallMshrMisses::total        54146                       # number of overall MSHR misses (Count)
system.cpu.dcache.demandMshrMissLatency::cpu.data   3097565000                       # number of demand (read+write) MSHR miss ticks (Tick)
system.cpu.dcache.demandMshrMissLatency::total   3097565000                       # number of demand (read+write) MSHR miss ticks (Tick)
system.cpu.dcache.overallMshrMissLatency::cpu.data   3097565000                       # number of overall MSHR miss ticks (Tick)
system.cpu.dcache.overallMshrMissLatency::total   3097565000                       # number of overall MSHR miss ticks (Tick)
system.cpu.dcache.demandMshrMissRate::cpu.data     0.003825                       # mshr miss ratio for demand accesses (Ratio)
system.cpu.dcache.demandMshrMissRate::total     0.003825                       # mshr miss ratio for demand accesses (Ratio)
system.cpu.dcache.overallMshrMissRate::cpu.data     0.003825                       # mshr miss ratio for overall accesses (Ratio)
system.cpu.dcache.overallMshrMissRate::total     0.003825                       # mshr miss ratio for overall accesses (Ratio)
system.cpu.dcache.demandAvgMshrMissLatency::cpu.data 57207.642300                       # average overall mshr miss latency ((Cycle/Count))
system.cpu.dcache.demandAvgMshrMissLatency::total 57207.642300                       # average overall mshr miss latency ((Cycle/Count))
system.cpu.dcache.overallAvgMshrMissLatency::cpu.data 57207.642300                       # average overall mshr miss latency ((Cycle/Count))
system.cpu.dcache.overallAvgMshrMissLatency::total 57207.642300                       # average overall mshr miss latency ((Cycle/Count))
system.cpu.dcache.replacements                  53634                       # number of replacements (Count)
system.cpu.dcache.ReadReq.hits::cpu.data      8982783                       # number of ReadReq hits (Count)
system.cpu.dcache.ReadReq.hits::total         8982783                       # number of ReadReq hits (Count)
system.cpu.dcache.ReadReq.misses::cpu.data        59511                       # number of ReadReq misses (Count)
system.cpu.dcache.ReadReq.misses::total         59511                       # number of ReadReq misses (Count)
system.cpu.dcache.ReadReq.missLatency::cpu.data   3567570000                       # number of ReadReq miss ticks (Tick)
system.cpu.dcache.ReadReq.missLatency::total   3567570000                       # number of ReadReq miss ticks (Tick)
system.cpu.dcache.ReadReq.accesses::cpu.data      9042294                       # number of ReadReq accesses(hits+misses) (Count)
system.cpu.dcache.ReadReq.accesses::total      9042294                       # number of ReadReq accesses(hits+misses) (Count)
system.cpu.dcache.ReadReq.missRate::cpu.data     0.006581                       # miss rate for ReadReq accesses (Ratio)
system.cpu.dcache.ReadReq.missRate::total     0.006581                       # miss rate for ReadReq accesses (Ratio)
system.cpu.dcache.ReadReq.avgMissLatency::cpu.data 59948.076826                       # average ReadReq miss latency ((Tick/Count))
system.cpu.dcache.ReadReq.avgMissLatency::total 59948.076826                       # average ReadReq miss latency ((Tick/Count))
system.cpu.dcache.ReadReq.mshrHits::cpu.data        17168                       # number of ReadReq MSHR hits (Count)
system.cpu.dcache.ReadReq.mshrHits::total        17168                       # number of ReadReq MSHR hits (Count)
system.cpu.dcache.ReadReq.mshrMisses::cpu.data        42343                       # number of ReadReq MSHR misses (Count)
system.cpu.dcache.ReadReq.mshrMisses::total        42343                       # number of ReadReq MSHR misses (Count)
system.cpu.dcache.ReadReq.mshrMissLatency::cpu.data   2669399500                       # number of ReadReq MSHR miss ticks (Tick)
system.cpu.dcache.ReadReq.mshrMissLatency::total   2669399500                       # number of ReadReq MSHR miss ticks (Tick)
system.cpu.dcache.ReadReq.mshrMissRate::cpu.data     0.004683                       # mshr miss rate for ReadReq accesses (Ratio)
system.cpu.dcache.ReadReq.mshrMissRate::total     0.004683                       # mshr miss rate for ReadReq accesses (Ratio)
system.cpu.dcache.ReadReq.avgMshrMissLatency::cpu.data 63042.285620                       # average ReadReq mshr miss latency ((Tick/Count))
system.cpu.dcache.ReadReq.avgMshrMissLatency::total 63042.285620                       # average ReadReq mshr miss latency ((Tick/Count))
system.cpu.dcache.WriteReq.hits::cpu.data      5094624                       # number of WriteReq hits (Count)
system.cpu.dcache.WriteReq.hits::total        5094624                       # number of WriteReq hits (Count)
system.cpu.dcache.WriteReq.misses::cpu.data        17802                       # number of WriteReq misses (Count)
system.cpu.dcache.WriteReq.misses::total        17802                       # number of WriteReq misses (Count)
system.cpu.dcache.WriteReq.missLatency::cpu.data    591160500                       # number of WriteReq miss ticks (Tick)
system.cpu.dcache.WriteReq.missLatency::total    591160500                       # number of WriteReq miss ticks (Tick)
system.cpu.dcache.WriteReq.accesses::cpu.data      5112426                       # number of WriteReq accesses(hits+misses) (Count)
system.cpu.dcache.WriteReq.accesses::total      5112426                       # number of WriteReq accesses(hits+misses) (Count)
system.cpu.dcache.WriteReq.missRate::cpu.data     0.003482                       # miss rate for WriteReq accesses (Ratio)
system.cpu.dcache.WriteReq.missRate::total     0.003482                       # miss rate for WriteReq accesses (Ratio)
system.cpu.dcache.WriteReq.avgMissLatency::cpu.data 33207.532861                       # average WriteReq miss latency ((Tick/Count))
system.cpu.dcache.WriteReq.avgMissLatency::total 33207.532861                       # average WriteReq miss latency ((Tick/Count))
system.cpu.dcache.WriteReq.mshrHits::cpu.data         5999                       # number of WriteReq MSHR hits (Count)
system.cpu.dcache.WriteReq.mshrHits::total         5999                       # number of WriteReq MSHR hits (Count)
system.cpu.dcache.WriteReq.mshrMisses::cpu.data        11803                       # number of WriteReq MSHR misses (Count)
system.cpu.dcache.WriteReq.mshrMisses::total        11803                       # number of WriteReq MSHR misses (Count)
system.cpu.dcache.WriteReq.mshrMissLatency::cpu.data    428165500                       # number of WriteReq MSHR miss ticks (Tick)
system.cpu.dcache.WriteReq.mshrMissLatency::total    428165500                       # number of WriteReq MSHR miss ticks (Tick)
system.cpu.dcache.WriteReq.mshrMissRate::cpu.data     0.002309                       # mshr miss rate for WriteReq accesses (Ratio)
system.cpu.dcache.WriteReq.mshrMissRate::total     0.002309                       # mshr miss rate for WriteReq accesses (Ratio)
system.cpu.dcache.WriteReq.avgMshrMissLatency::cpu.data 36275.989155                       # average WriteReq mshr miss latency ((Tick/Count))
system.cpu.dcache.WriteReq.avgMshrMissLatency::total 36275.989155                       # average WriteReq mshr miss latency ((Tick/Count))
system.cpu.dcache.power_state.pwrStateResidencyTicks::UNDEFINED  59321448000                       # Cumulative time (in ticks) in various power states (Tick)
system.cpu.dcache.tags.tagsInUse           511.630999                       # Average ticks per tags in use ((Tick/Count))
system.cpu.dcache.tags.totalRefs             14131553                       # Total number of references to valid blocks. (Count)
system.cpu.dcache.tags.sampledRefs              54146                       # Sample count of references to valid blocks. (Count)
system.cpu.dcache.tags.avgRefs             260.989787                       # Average number of references to valid blocks. ((Count/Count))
system.cpu.dcache.tags.warmupTick              145000                       # The tick when the warmup percentage was hit. (Tick)
system.cpu.dcache.tags.occupancies::cpu.data   511.630999                       # Average occupied blocks per tick, per requestor ((Count/Tick))
system.cpu.dcache.tags.avgOccs::cpu.data     0.999279                       # Average percentage of cache occupancy ((Ratio/Tick))
system.cpu.dcache.tags.avgOccs::total        0.999279                       # Average percentage of cache occupancy ((Ratio/Tick))
system.cpu.dcache.tags.occupanciesTaskId::1024          512                       # Occupied blocks per task id (Count)
system.cpu.dcache.tags.ageTaskId_1024::0           31                       # Occupied blocks per task id, per block age (Count)
system.cpu.dcache.tags.ageTaskId_1024::1          481                       # Occupied blocks per task id, per block age (Count)
system.cpu.dcache.tags.ratioOccsTaskId::1024            1                       # Ratio of occupied blocks and all blocks, per task id (Ratio)
system.cpu.dcache.tags.tagAccesses           28363586                       # Number of tag accesses (Count)
system.cpu.dcache.tags.dataAccesses          28363586                       # Number of data accesses (Count)
system.cpu.dcache.tags.power_state.pwrStateResidencyTicks::UNDEFINED  59321448000                       # Cumulative time (in ticks) in various power states (Tick)
system.cpu.dtb_walker_cache.blockedCycles::no_mshrs            0                       # number of cycles access was blocked (Cycle)
system.cpu.dtb_walker_cache.blockedCycles::no_targets            0                       # number of cycles access was blocked (Cycle)
system.cpu.dtb_walker_cache.blockedCauses::no_mshrs            0                       # number of times access was blocked (Count)
system.cpu.dtb_walker_cache.blockedCauses::no_targets            0                       # number of times access was blocked (Count)
system.cpu.dtb_walker_cache.avgBlocked::no_mshrs          nan                       # average number of cycles each access was blocked ((Cycle/Count))
system.cpu.dtb_walker_cache.avgBlocked::no_targets          nan                       # average number of cycles each access was blocked ((Cycle/Count))
system.cpu.dtb_walker_cache.replacements            0                       # number of replacements (Count)
system.cpu.dtb_walker_cache.power_state.pwrStateResidencyTicks::UNDEFINED  59321448000                       # Cumulative time (in ticks) in various power states (Tick)
system.cpu.dtb_walker_cache.tags.tagsInUse            0                       # Average ticks per tags in use ((Tick/Count))
system.cpu.dtb_walker_cache.tags.totalRefs            0                       # Total number of references to valid blocks. (Count)
system.cpu.dtb_walker_cache.tags.sampledRefs            0                       # Sample count of references to valid blocks. (Count)
system.cpu.dtb_walker_cache.tags.avgRefs          nan                       # Average number of references to valid blocks. ((Count/Count))
system.cpu.dtb_walker_cache.tags.warmupTick            0                       # The tick when the warmup percentage was hit. (Tick)
system.cpu.dtb_walker_cache.tags.tagAccesses            0                       # Number of tag accesses (Count)
system.cpu.dtb_walker_cache.tags.dataAccesses            0                       # Number of data accesses (Count)
system.cpu.dtb_walker_cache.tags.power_state.pwrStateResidencyTicks::UNDEFINED  59321448000                       # Cumulative time (in ticks) in various power states (Tick)
system.cpu.fetch2.intInstructions                   8                       # Number of integer instructions successfully decoded (Count)
system.cpu.fetch2.fpInstructions                    0                       # Number of floating point instructions successfully decoded (Count)
system.cpu.fetch2.vecInstructions                   0                       # Number of SIMD instructions successfully decoded (Count)
system.cpu.fetch2.loadInstructions                  0                       # Number of memory load instructions successfully decoded (Count)
system.cpu.fetch2.storeInstructions                 0                       # Number of memory store instructions successfully decoded (Count)
system.cpu.fetch2.amoInstructions                   0                       # Number of memory atomic instructions successfully decoded (Count)
system.cpu.icache.demandHits::cpu.inst       15775838                       # number of demand (read+write) hits (Count)
system.cpu.icache.demandHits::total          15775838                       # number of demand (read+write) hits (Count)
system.cpu.icache.overallHits::cpu.inst      15775838                       # number of overall hits (Count)
system.cpu.icache.overallHits::total         15775838                       # number of overall hits (Count)
system.cpu.icache.demandMisses::cpu.inst       120917                       # number of demand (read+write) misses (Count)
system.cpu.icache.demandMisses::total          120917                       # number of demand (read+write) misses (Count)
system.cpu.icache.overallMisses::cpu.inst       120917                       # number of overall misses (Count)
system.cpu.icache.overallMisses::total         120917                       # number of overall misses (Count)
system.cpu.icache.demandMissLatency::cpu.inst   3076802000                       # number of demand (read+write) miss ticks (Tick)
system.cpu.icache.demandMissLatency::total   3076802000                       # number of demand (read+write) miss ticks (Tick)
system.cpu.icache.overallMissLatency::cpu.inst   3076802000                       # number of overall miss ticks (Tick)
system.cpu.icache.overallMissLatency::total   3076802000                       # number of overall miss ticks (Tick)
system.cpu.icache.demandAccesses::cpu.inst     15896755                       # number of demand (read+write) accesses (Count)
system.cpu.icache.demandAccesses::total      15896755                       # number of demand (read+write) accesses (Count)
system.cpu.icache.overallAccesses::cpu.inst     15896755                       # number of overall (read+write) accesses (Count)
system.cpu.icache.overallAccesses::total     15896755                       # number of overall (read+write) accesses (Count)
system.cpu.icache.demandMissRate::cpu.inst     0.007606                       # miss rate for demand accesses (Ratio)
system.cpu.icache.demandMissRate::total      0.007606                       # miss rate for demand accesses (Ratio)
system.cpu.icache.overallMissRate::cpu.inst     0.007606                       # miss rate for overall accesses (Ratio)
system.cpu.icache.overallMissRate::total     0.007606                       # miss rate for overall accesses (Ratio)
system.cpu.icache.demandAvgMissLatency::cpu.inst 25445.570102                       # average overall miss latency ((Cycle/Count))
system.cpu.icache.demandAvgMissLatency::total 25445.570102                       # average overall miss latency ((Cycle/Count))
system.cpu.icache.overallAvgMissLatency::cpu.inst 25445.570102                       # average overall miss latency ((Cycle/Count))
system.cpu.icache.overallAvgMissLatency::total 25445.570102                       # average overall miss latency ((Cycle/Count))
system.cpu.icache.blockedCycles::no_mshrs            0                       # number of cycles access was blocked (Cycle)
system.cpu.icache.blockedCycles::no_targets            0                       # number of cycles access was blocked (Cycle)
system.cpu.icache.blockedCauses::no_mshrs            0                       # number of times access was blocked (Count)
system.cpu.icache.blockedCauses::no_targets            0                       # number of times access was blocked (Count)
system.cpu.icache.avgBlocked::no_mshrs            nan                       # average number of cycles each access was blocked ((Cycle/Count))
system.cpu.icache.avgBlocked::no_targets          nan                       # average number of cycles each access was blocked ((Cycle/Count))
system.cpu.icache.writebacks::writebacks       120412                       # number of writebacks (Count)
system.cpu.icache.writebacks::total            120412                       # number of writebacks (Count)
system.cpu.icache.demandMshrMisses::cpu.inst       120917                       # number of demand (read+write) MSHR misses (Count)
system.cpu.icache.demandMshrMisses::total       120917                       # number of demand (read+write) MSHR misses (Count)
system.cpu.icache.overallMshrMisses::cpu.inst       120917                       # number of overall MSHR misses (Count)
system.cpu.icache.overallMshrMisses::total       120917                       # number of overall MSHR misses (Count)
system.cpu.icache.demandMshrMissLatency::cpu.inst   2955886000                       # number of demand (read+write) MSHR miss ticks (Tick)
system.cpu.icache.demandMshrMissLatency::total   2955886000                       # number of demand (read+write) MSHR miss ticks (Tick)
system.cpu.icache.overallMshrMissLatency::cpu.inst   2955886000                       # number of overall MSHR miss ticks (Tick)
system.cpu.icache.overallMshrMissLatency::total   2955886000                       # number of overall MSHR miss ticks (Tick)
system.cpu.icache.demandMshrMissRate::cpu.inst     0.007606                       # mshr miss ratio for demand accesses (Ratio)
system.cpu.icache.demandMshrMissRate::total     0.007606                       # mshr miss ratio for demand accesses (Ratio)
system.cpu.icache.overallMshrMissRate::cpu.inst     0.007606                       # mshr miss ratio for overall accesses (Ratio)
system.cpu.icache.overallMshrMissRate::total     0.007606                       # mshr miss ratio for overall accesses (Ratio)
system.cpu.icache.demandAvgMshrMissLatency::cpu.inst 24445.578372                       # average overall mshr miss latency ((Cycle/Count))
system.cpu.icache.demandAvgMshrMissLatency::total 24445.578372                       # average overall mshr miss latency ((Cycle/Count))
system.cpu.icache.overallAvgMshrMissLatency::cpu.inst 24445.578372                       # average overall mshr miss latency ((Cycle/Count))
system.cpu.icache.overallAvgMshrMissLatency::total 24445.578372                       # average overall mshr miss latency ((Cycle/Count))
system.cpu.icache.replacements                 120412                       # number of replacements (Count)
system.cpu.icache.ReadReq.hits::cpu.inst     15775838                       # number of ReadReq hits (Count)
system.cpu.icache.ReadReq.hits::total        15775838                       # number of ReadReq hits (Count)
system.cpu.icache.ReadReq.misses::cpu.inst       120917                       # number of ReadReq misses (Count)
system.cpu.icache.ReadReq.misses::total        120917                       # number of ReadReq misses (Count)
system.cpu.icache.ReadReq.missLatency::cpu.inst   3076802000                       # number of ReadReq miss ticks (Tick)
system.cpu.icache.ReadReq.missLatency::total   3076802000                       # number of ReadReq miss ticks (Tick)
system.cpu.icache.ReadReq.accesses::cpu.inst     15896755                       # number of ReadReq accesses(hits+misses) (Count)
system.cpu.icache.ReadReq.accesses::total     15896755                       # number of ReadReq accesses(hits+misses) (Count)
system.cpu.icache.ReadReq.missRate::cpu.inst     0.007606                       # miss rate for ReadReq accesses (Ratio)
system.cpu.icache.ReadReq.missRate::total     0.007606                       # miss rate for ReadReq accesses (Ratio)
system.cpu.icache.ReadReq.avgMissLatency::cpu.inst 25445.570102                       # average ReadReq miss latency ((Tick/Count))
system.cpu.icache.ReadReq.avgMissLatency::total 25445.570102                       # average ReadReq miss latency ((Tick/Count))
system.cpu.icache.ReadReq.mshrMisses::cpu.inst       120917                       # number of ReadReq MSHR misses (Count)
system.cpu.icache.ReadReq.mshrMisses::total       120917                       # number of ReadReq MSHR misses (Count)
system.cpu.icache.ReadReq.mshrMissLatency::cpu.inst   2955886000                       # number of ReadReq MSHR miss ticks (Tick)
system.cpu.icache.ReadReq.mshrMissLatency::total   2955886000                       # number of ReadReq MSHR miss ticks (Tick)
system.cpu.icache.ReadReq.mshrMissRate::cpu.inst     0.007606                       # mshr miss rate for ReadReq accesses (Ratio)
system.cpu.icache.ReadReq.mshrMissRate::total     0.007606                       # mshr miss rate for ReadReq accesses (Ratio)
system.cpu.icache.ReadReq.avgMshrMissLatency::cpu.inst 24445.578372                       # average ReadReq mshr miss latency ((Tick/Count))
system.cpu.icache.ReadReq.avgMshrMissLatency::total 24445.578372                       # average ReadReq mshr miss latency ((Tick/Count))
system.cpu.icache.power_state.pwrStateResidencyTicks::UNDEFINED  59321448000                       # Cumulative time (in ticks) in various power states (Tick)
system.cpu.icache.tags.tagsInUse           465.907050                       # Average ticks per tags in use ((Tick/Count))
system.cpu.icache.tags.totalRefs             15896754                       # Total number of references to valid blocks. (Count)
system.cpu.icache.tags.sampledRefs             120916                       # Sample count of references to valid blocks. (Count)
system.cpu.icache.tags.avgRefs             131.469400                       # Average number of references to valid blocks. ((Count/Count))
system.cpu.icache.tags.warmupTick               77000                       # The tick when the warmup percentage was hit. (Tick)
system.cpu.icache.tags.occupancies::cpu.inst   465.907050                       # Average occupied blocks per tick, per requestor ((Count/Tick))
system.cpu.icache.tags.avgOccs::cpu.inst     0.909975                       # Average percentage of cache occupancy ((Ratio/Tick))
system.cpu.icache.tags.avgOccs::total        0.909975                       # Average percentage of cache occupancy ((Ratio/Tick))
system.cpu.icache.tags.occupanciesTaskId::1024          504                       # Occupied blocks per task id (Count)
system.cpu.icache.tags.ageTaskId_1024::0          117                       # Occupied blocks per task id, per block age (Count)
system.cpu.icache.tags.ageTaskId_1024::1           32                       # Occupied blocks per task id, per block age (Count)
system.cpu.icache.tags.ageTaskId_1024::2           24                       # Occupied blocks per task id, per block age (Count)
system.cpu.icache.tags.ageTaskId_1024::3           93                       # Occupied blocks per task id, per block age (Count)
system.cpu.icache.tags.ageTaskId_1024::4          238                       # Occupied blocks per task id, per block age (Count)
system.cpu.icache.tags.ratioOccsTaskId::1024     0.984375                       # Ratio of occupied blocks and all blocks, per task id (Ratio)
system.cpu.icache.tags.tagAccesses           31914426                       # Number of tag accesses (Count)
system.cpu.icache.tags.dataAccesses          31914426                       # Number of data accesses (Count)
system.cpu.icache.tags.power_state.pwrStateResidencyTicks::UNDEFINED  59321448000                       # Cumulative time (in ticks) in various power states (Tick)
system.cpu.interrupts.clk_domain.clock           8000                       # Clock period in ticks (Tick)
system.cpu.itb_walker_cache.blockedCycles::no_mshrs            0                       # number of cycles access was blocked (Cycle)
system.cpu.itb_walker_cache.blockedCycles::no_targets            0                       # number of cycles access was blocked (Cycle)
system.cpu.itb_walker_cache.blockedCauses::no_mshrs            0                       # number of times access was blocked (Count)
system.cpu.itb_walker_cache.blockedCauses::no_targets            0                       # number of times access was blocked (Count)
system.cpu.itb_walker_cache.avgBlocked::no_mshrs          nan                       # average number of cycles each access was blocked ((Cycle/Count))
system.cpu.itb_walker_cache.avgBlocked::no_targets          nan                       # average number of cycles each access was blocked ((Cycle/Count))
system.cpu.itb_walker_cache.replacements            0                       # number of replacements (Count)
system.cpu.itb_walker_cache.power_state.pwrStateResidencyTicks::UNDEFINED  59321448000                       # Cumulative time (in ticks) in various power states (Tick)
system.cpu.itb_walker_cache.tags.tagsInUse            0                       # Average ticks per tags in use ((Tick/Count))
system.cpu.itb_walker_cache.tags.totalRefs            0                       # Total number of references to valid blocks. (Count)
system.cpu.itb_walker_cache.tags.sampledRefs            0                       # Sample count of references to valid blocks. (Count)
system.cpu.itb_walker_cache.tags.avgRefs          nan                       # Average number of references to valid blocks. ((Count/Count))
system.cpu.itb_walker_cache.tags.warmupTick            0                       # The tick when the warmup percentage was hit. (Tick)
system.cpu.itb_walker_cache.tags.tagAccesses            0                       # Number of tag accesses (Count)
system.cpu.itb_walker_cache.tags.dataAccesses            0                       # Number of data accesses (Count)
system.cpu.itb_walker_cache.tags.power_state.pwrStateResidencyTicks::UNDEFINED  59321448000                       # Cumulative time (in ticks) in various power states (Tick)
system.cpu.mmu.dtb.rdAccesses                 9464010                       # TLB accesses on read requests (Count)
system.cpu.mmu.dtb.wrAccesses                 5415123                       # TLB accesses on write requests (Count)
system.cpu.mmu.dtb.rdMisses                    209934                       # TLB misses on read requests (Count)
system.cpu.mmu.dtb.wrMisses                       114                       # TLB misses on write requests (Count)
system.cpu.mmu.dtb.walker.power_state.pwrStateResidencyTicks::UNDEFINED  59321448000                       # Cumulative time (in ticks) in various power states (Tick)
system.cpu.mmu.itb.rdAccesses                       0                       # TLB accesses on read requests (Count)
system.cpu.mmu.itb.wrAccesses                15896755                       # TLB accesses on write requests (Count)
system.cpu.mmu.itb.rdMisses                         0                       # TLB misses on read requests (Count)
system.cpu.mmu.itb.wrMisses                        96                       # TLB misses on write requests (Count)
system.cpu.mmu.itb.walker.power_state.pwrStateResidencyTicks::UNDEFINED  59321448000                       # Cumulative time (in ticks) in various power states (Tick)
system.cpu.power_state.pwrStateResidencyTicks::ON  59321448000                       # Cumulative time (in ticks) in various power states (Tick)
system.cpu.thread_0.numInsts                 34936314                       # Number of Instructions committed (Count)
system.cpu.thread_0.numOps                   69040940                       # Number of Ops committed (Count)
system.cpu.thread_0.numMemRefs                      0                       # Number of Memory References (Count)
system.cpu.workload.numSyscalls                  4123                       # Number of system calls (Count)
system.cpu_clk_domain.clock                       500                       # Clock period in ticks (Tick)
system.cpu_voltage_domain.voltage                   1                       # Voltage in Volts (Volt)
system.mem_ctrls.avgPriority_writebacks::samples     26247.00                       # Average QoS priority value for accepted requests (Count)
system.mem_ctrls.avgPriority_cpu.inst::samples      6657.00                       # Average QoS priority value for accepted requests (Count)
system.mem_ctrls.avgPriority_cpu.data::samples     45359.00                       # Average QoS priority value for accepted requests (Count)
system.mem_ctrls.priorityMinLatency      0.000000018750                       # per QoS priority minimum request to response latency (Second)
system.mem_ctrls.priorityMaxLatency      0.005314210500                       # per QoS priority maximum request to response latency (Second)
system.mem_ctrls.numReadWriteTurnArounds         1505                       # Number of turnarounds from READ to WRITE (Count)
system.mem_ctrls.numWriteReadTurnArounds         1505                       # Number of turnarounds from WRITE to READ (Count)
system.mem_ctrls.numStayReadState              259436                       # Number of times bus staying in READ state (Count)
system.mem_ctrls.numStayWriteState              24732                       # Number of times bus staying in WRITE state (Count)
system.mem_ctrls.readReqs                      175063                       # Number of read requests accepted (Count)
system.mem_ctrls.writeReqs                     141239                       # Number of write requests accepted (Count)
system.mem_ctrls.readBursts                    175063                       # Number of controller read bursts, including those serviced by the write queue (Count)
system.mem_ctrls.writeBursts                   141239                       # Number of controller write bursts, including those merged in the write queue (Count)
system.mem_ctrls.servicedByWrQ                 123047                       # Number of controller read bursts serviced by the write queue (Count)
system.mem_ctrls.mergedWrBursts                114992                       # Number of controller write bursts merged with an existing one (Count)
system.mem_ctrls.neitherReadNorWriteReqs            0                       # Number of requests that are neither read nor write (Count)
system.mem_ctrls.avgRdQLen                       1.02                       # Average read queue length when enqueuing ((Count/Tick))
system.mem_ctrls.avgWrQLen                      27.14                       # Average write queue length when enqueuing ((Count/Tick))
system.mem_ctrls.numRdRetry                         0                       # Number of times read queue was full causing retry (Count)
system.mem_ctrls.numWrRetry                         0                       # Number of times write queue was full causing retry (Count)
system.mem_ctrls.readPktSize::0                     0                       # Read request sizes (log2) (Count)
system.mem_ctrls.readPktSize::1                     0                       # Read request sizes (log2) (Count)
system.mem_ctrls.readPktSize::2                     0                       # Read request sizes (log2) (Count)
system.mem_ctrls.readPktSize::3                     0                       # Read request sizes (log2) (Count)
system.mem_ctrls.readPktSize::4                     0                       # Read request sizes (log2) (Count)
system.mem_ctrls.readPktSize::5                     0                       # Read request sizes (log2) (Count)
system.mem_ctrls.readPktSize::6                175063                       # Read request sizes (log2) (Count)
system.mem_ctrls.writePktSize::0                    0                       # Write request sizes (log2) (Count)
system.mem_ctrls.writePktSize::1                    0                       # Write request sizes (log2) (Count)
system.mem_ctrls.writePktSize::2                    0                       # Write request sizes (log2) (Count)
system.mem_ctrls.writePktSize::3                    0                       # Write request sizes (log2) (Count)
system.mem_ctrls.writePktSize::4                    0                       # Write request sizes (log2) (Count)
system.mem_ctrls.writePktSize::5                    0                       # Write request sizes (log2) (Count)
system.mem_ctrls.writePktSize::6               141239                       # Write request sizes (log2) (Count)
system.mem_ctrls.rdQLenPdf::0                   47346                       # What read queue length does an incoming req see (Count)
system.mem_ctrls.rdQLenPdf::1                    4655                       # What read queue length does an incoming req see (Count)
system.mem_ctrls.rdQLenPdf::2                      15                       # What read queue length does an incoming req see (Count)
system.mem_ctrls.rdQLenPdf::3                       0                       # What read queue length does an incoming req see (Count)
system.mem_ctrls.rdQLenPdf::4                       0                       # What read queue length does an incoming req see (Count)
system.mem_ctrls.rdQLenPdf::5                       0                       # What read queue length does an incoming req see (Count)
system.mem_ctrls.rdQLenPdf::6                       0                       # What read queue length does an incoming req see (Count)
system.mem_ctrls.rdQLenPdf::7                       0                       # What read queue length does an incoming req see (Count)
system.mem_ctrls.rdQLenPdf::8                       0                       # What read queue length does an incoming req see (Count)
system.mem_ctrls.rdQLenPdf::9                       0                       # What read queue length does an incoming req see (Count)
system.mem_ctrls.rdQLenPdf::10                      0                       # What read queue length does an incoming req see (Count)
system.mem_ctrls.rdQLenPdf::11                      0                       # What read queue length does an incoming req see (Count)
system.mem_ctrls.rdQLenPdf::12                      0                       # What read queue length does an incoming req see (Count)
system.mem_ctrls.rdQLenPdf::13                      0                       # What read queue length does an incoming req see (Count)
system.mem_ctrls.rdQLenPdf::14                      0                       # What read queue length does an incoming req see (Count)
system.mem_ctrls.rdQLenPdf::15                      0                       # What read queue length does an incoming req see (Count)
system.mem_ctrls.rdQLenPdf::16                      0                       # What read queue length does an incoming req see (Count)
system.mem_ctrls.rdQLenPdf::17                      0                       # What read queue length does an incoming req see (Count)
system.mem_ctrls.rdQLenPdf::18                      0                       # What read queue length does an incoming req see (Count)
system.mem_ctrls.rdQLenPdf::19                      0                       # What read queue length does an incoming req see (Count)
system.mem_ctrls.rdQLenPdf::20                      0                       # What read queue length does an incoming req see (Count)
system.mem_ctrls.rdQLenPdf::21                      0                       # What read queue length does an incoming req see (Count)
system.mem_ctrls.rdQLenPdf::22                      0                       # What read queue length does an incoming req see (Count)
system.mem_ctrls.rdQLenPdf::23                      0                       # What read queue length does an incoming req see (Count)
system.mem_ctrls.rdQLenPdf::24                      0                       # What read queue length does an incoming req see (Count)
system.mem_ctrls.rdQLenPdf::25                      0                       # What read queue length does an incoming req see (Count)
system.mem_ctrls.rdQLenPdf::26                      0                       # What read queue length does an incoming req see (Count)
system.mem_ctrls.rdQLenPdf::27                      0                       # What read queue length does an incoming req see (Count)
system.mem_ctrls.rdQLenPdf::28                      0                       # What read queue length does an incoming req see (Count)
system.mem_ctrls.rdQLenPdf::29                      0                       # What read queue length does an incoming req see (Count)
system.mem_ctrls.rdQLenPdf::30                      0                       # What read queue length does an incoming req see (Count)
system.mem_ctrls.rdQLenPdf::31                      0                       # What read queue length does an incoming req see (Count)
system.mem_ctrls.wrQLenPdf::0                       1                       # What write queue length does an incoming req see (Count)
system.mem_ctrls.wrQLenPdf::1                       1                       # What write queue length does an incoming req see (Count)
system.mem_ctrls.wrQLenPdf::2                       1                       # What write queue length does an incoming req see (Count)
system.mem_ctrls.wrQLenPdf::3                       1                       # What write queue length does an incoming req see (Count)
system.mem_ctrls.wrQLenPdf::4                       1                       # What write queue length does an incoming req see (Count)
system.mem_ctrls.wrQLenPdf::5                       1                       # What write queue length does an incoming req see (Count)
system.mem_ctrls.wrQLenPdf::6                       1                       # What write queue length does an incoming req see (Count)
system.mem_ctrls.wrQLenPdf::7                       1                       # What write queue length does an incoming req see (Count)
system.mem_ctrls.wrQLenPdf::8                       1                       # What write queue length does an incoming req see (Count)
system.mem_ctrls.wrQLenPdf::9                       1                       # What write queue length does an incoming req see (Count)
system.mem_ctrls.wrQLenPdf::10                      1                       # What write queue length does an incoming req see (Count)
system.mem_ctrls.wrQLenPdf::11                      1                       # What write queue length does an incoming req see (Count)
system.mem_ctrls.wrQLenPdf::12                      1                       # What write queue length does an incoming req see (Count)
system.mem_ctrls.wrQLenPdf::13                      1                       # What write queue length does an incoming req see (Count)
system.mem_ctrls.wrQLenPdf::14                      1                       # What write queue length does an incoming req see (Count)
system.mem_ctrls.wrQLenPdf::15                    942                       # What write queue length does an incoming req see (Count)
system.mem_ctrls.wrQLenPdf::16                    947                       # What write queue length does an incoming req see (Count)
system.mem_ctrls.wrQLenPdf::17                   1515                       # What write queue length does an incoming req see (Count)
system.mem_ctrls.wrQLenPdf::18                   1520                       # What write queue length does an incoming req see (Count)
system.mem_ctrls.wrQLenPdf::19                   1520                       # What write queue length does an incoming req see (Count)
system.mem_ctrls.wrQLenPdf::20                   1536                       # What write queue length does an incoming req see (Count)
system.mem_ctrls.wrQLenPdf::21                   1543                       # What write queue length does an incoming req see (Count)
system.mem_ctrls.wrQLenPdf::22                   1587                       # What write queue length does an incoming req see (Count)
system.mem_ctrls.wrQLenPdf::23                   1516                       # What write queue length does an incoming req see (Count)
system.mem_ctrls.wrQLenPdf::24                   1518                       # What write queue length does an incoming req see (Count)
system.mem_ctrls.wrQLenPdf::25                   1545                       # What write queue length does an incoming req see (Count)
system.mem_ctrls.wrQLenPdf::26                   1505                       # What write queue length does an incoming req see (Count)
system.mem_ctrls.wrQLenPdf::27                   1506                       # What write queue length does an incoming req see (Count)
system.mem_ctrls.wrQLenPdf::28                   1506                       # What write queue length does an incoming req see (Count)
system.mem_ctrls.wrQLenPdf::29                   1505                       # What write queue length does an incoming req see (Count)
system.mem_ctrls.wrQLenPdf::30                   1506                       # What write queue length does an incoming req see (Count)
system.mem_ctrls.wrQLenPdf::31                   1505                       # What write queue length does an incoming req see (Count)
system.mem_ctrls.wrQLenPdf::32                   1505                       # What write queue length does an incoming req see (Count)
system.mem_ctrls.wrQLenPdf::33                      4                       # What write queue length does an incoming req see (Count)
system.mem_ctrls.wrQLenPdf::34                      1                       # What write queue length does an incoming req see (Count)
system.mem_ctrls.wrQLenPdf::35                      0                       # What write queue length does an incoming req see (Count)
system.mem_ctrls.wrQLenPdf::36                      0                       # What write queue length does an incoming req see (Count)
system.mem_ctrls.wrQLenPdf::37                      0                       # What write queue length does an incoming req see (Count)
system.mem_ctrls.wrQLenPdf::38                      0                       # What write queue length does an incoming req see (Count)
system.mem_ctrls.wrQLenPdf::39                      0                       # What write queue length does an incoming req see (Count)
system.mem_ctrls.wrQLenPdf::40                      0                       # What write queue length does an incoming req see (Count)
system.mem_ctrls.wrQLenPdf::41                      0                       # What write queue length does an incoming req see (Count)
system.mem_ctrls.wrQLenPdf::42                      0                       # What write queue length does an incoming req see (Count)
system.mem_ctrls.wrQLenPdf::43                      0                       # What write queue length does an incoming req see (Count)
system.mem_ctrls.wrQLenPdf::44                      0                       # What write queue length does an incoming req see (Count)
system.mem_ctrls.wrQLenPdf::45                      0                       # What write queue length does an incoming req see (Count)
system.mem_ctrls.wrQLenPdf::46                      0                       # What write queue length does an incoming req see (Count)
system.mem_ctrls.wrQLenPdf::47                      0                       # What write queue length does an incoming req see (Count)
system.mem_ctrls.wrQLenPdf::48                      0                       # What write queue length does an incoming req see (Count)
system.mem_ctrls.wrQLenPdf::49                      0                       # What write queue length does an incoming req see (Count)
system.mem_ctrls.wrQLenPdf::50                      0                       # What write queue length does an incoming req see (Count)
system.mem_ctrls.wrQLenPdf::51                      0                       # What write queue length does an incoming req see (Count)
system.mem_ctrls.wrQLenPdf::52                      0                       # What write queue length does an incoming req see (Count)
system.mem_ctrls.wrQLenPdf::53                      0                       # What write queue length does an incoming req see (Count)
system.mem_ctrls.wrQLenPdf::54                      0                       # What write queue length does an incoming req see (Count)
system.mem_ctrls.wrQLenPdf::55                      0                       # What write queue length does an incoming req see (Count)
system.mem_ctrls.wrQLenPdf::56                      0                       # What write queue length does an incoming req see (Count)
system.mem_ctrls.wrQLenPdf::57                      0                       # What write queue length does an incoming req see (Count)
system.mem_ctrls.wrQLenPdf::58                      0                       # What write queue length does an incoming req see (Count)
system.mem_ctrls.wrQLenPdf::59                      0                       # What write queue length does an incoming req see (Count)
system.mem_ctrls.wrQLenPdf::60                      0                       # What write queue length does an incoming req see (Count)
system.mem_ctrls.wrQLenPdf::61                      0                       # What write queue length does an incoming req see (Count)
system.mem_ctrls.wrQLenPdf::62                      0                       # What write queue length does an incoming req see (Count)
system.mem_ctrls.wrQLenPdf::63                      0                       # What write queue length does an incoming req see (Count)
system.mem_ctrls.rdPerTurnAround::samples         1505                       # Reads before turning the bus around for writes (Count)
system.mem_ctrls.rdPerTurnAround::mean      34.556811                       # Reads before turning the bus around for writes (Count)
system.mem_ctrls.rdPerTurnAround::gmean     21.355144                       # Reads before turning the bus around for writes (Count)
system.mem_ctrls.rdPerTurnAround::stdev     72.576681                       # Reads before turning the bus around for writes (Count)
system.mem_ctrls.rdPerTurnAround::0-63           1383     91.89%     91.89% # Reads before turning the bus around for writes (Count)
system.mem_ctrls.rdPerTurnAround::64-127           54      3.59%     95.48% # Reads before turning the bus around for writes (Count)
system.mem_ctrls.rdPerTurnAround::128-191           23      1.53%     97.01% # Reads before turning the bus around for writes (Count)
system.mem_ctrls.rdPerTurnAround::192-255           19      1.26%     98.27% # Reads before turning the bus around for writes (Count)
system.mem_ctrls.rdPerTurnAround::256-319           10      0.66%     98.94% # Reads before turning the bus around for writes (Count)
system.mem_ctrls.rdPerTurnAround::320-383            3      0.20%     99.14% # Reads before turning the bus around for writes (Count)
system.mem_ctrls.rdPerTurnAround::384-447            3      0.20%     99.34% # Reads before turning the bus around for writes (Count)
system.mem_ctrls.rdPerTurnAround::448-511            1      0.07%     99.40% # Reads before turning the bus around for writes (Count)
system.mem_ctrls.rdPerTurnAround::512-575            3      0.20%     99.60% # Reads before turning the bus around for writes (Count)
system.mem_ctrls.rdPerTurnAround::640-703            2      0.13%     99.73% # Reads before turning the bus around for writes (Count)
system.mem_ctrls.rdPerTurnAround::768-831            2      0.13%     99.87% # Reads before turning the bus around for writes (Count)
system.mem_ctrls.rdPerTurnAround::960-1023            1      0.07%     99.93% # Reads before turning the bus around for writes (Count)
system.mem_ctrls.rdPerTurnAround::1024-1087            1      0.07%    100.00% # Reads before turning the bus around for writes (Count)
system.mem_ctrls.rdPerTurnAround::total          1505                       # Reads before turning the bus around for writes (Count)
system.mem_ctrls.wrPerTurnAround::samples         1505                       # Writes before turning the bus around for reads (Count)
system.mem_ctrls.wrPerTurnAround::mean      17.424585                       # Writes before turning the bus around for reads (Count)
system.mem_ctrls.wrPerTurnAround::gmean     17.384813                       # Writes before turning the bus around for reads (Count)
system.mem_ctrls.wrPerTurnAround::stdev      1.174782                       # Writes before turning the bus around for reads (Count)
system.mem_ctrls.wrPerTurnAround::16              560     37.21%     37.21% # Writes before turning the bus around for reads (Count)
system.mem_ctrls.wrPerTurnAround::17                2      0.13%     37.34% # Writes before turning the bus around for reads (Count)
system.mem_ctrls.wrPerTurnAround::18              722     47.97%     85.32% # Writes before turning the bus around for reads (Count)
system.mem_ctrls.wrPerTurnAround::19              188     12.49%     97.81% # Writes before turning the bus around for reads (Count)
system.mem_ctrls.wrPerTurnAround::20               32      2.13%     99.93% # Writes before turning the bus around for reads (Count)
system.mem_ctrls.wrPerTurnAround::22                1      0.07%    100.00% # Writes before turning the bus around for reads (Count)
system.mem_ctrls.wrPerTurnAround::total          1505                       # Writes before turning the bus around for reads (Count)
system.mem_ctrls.bytesReadWrQ                 7875008                       # Total number of bytes read from write queue (Byte)
system.mem_ctrls.bytesReadSys                11204032                       # Total read bytes from the system interface side (Byte)
system.mem_ctrls.bytesWrittenSys              9039296                       # Total written bytes from the system interface side (Byte)
system.mem_ctrls.avgRdBWSys              188869833.38640013                       # Average system read bandwidth in Byte/s ((Byte/Second))
system.mem_ctrls.avgWrBWSys              152378208.97426510                       # Average system write bandwidth in Byte/s ((Byte/Second))
system.mem_ctrls.totGap                   59321446000                       # Total gap between requests (Tick)
system.mem_ctrls.avgGap                     187546.86                       # Average gap between requests ((Tick/Count))
system.mem_ctrls.requestorReadBytes::cpu.inst       426048                       # Per-requestor bytes read from memory (Byte)
system.mem_ctrls.requestorReadBytes::cpu.data      2902976                       # Per-requestor bytes read from memory (Byte)
system.mem_ctrls.requestorWriteBytes::writebacks      1678336                       # Per-requestor bytes write to memory (Byte)
system.mem_ctrls.requestorReadRate::cpu.inst 7182022.933762507513                       # Per-requestor bytes read from memory rate ((Byte/Second))
system.mem_ctrls.requestorReadRate::cpu.data 48936364.466356247663                       # Per-requestor bytes read from memory rate ((Byte/Second))
system.mem_ctrls.requestorWriteRate::writebacks 28292229.144507732242                       # Per-requestor bytes write to memory rate ((Byte/Second))
system.mem_ctrls.requestorReadAccesses::cpu.inst       120917                       # Per-requestor read serviced memory accesses (Count)
system.mem_ctrls.requestorReadAccesses::cpu.data        54146                       # Per-requestor read serviced memory accesses (Count)
system.mem_ctrls.requestorWriteAccesses::writebacks       141239                       # Per-requestor write serviced memory accesses (Count)
system.mem_ctrls.requestorReadTotalLat::cpu.inst    208236500                       # Per-requestor read total memory access latency (Tick)
system.mem_ctrls.requestorReadTotalLat::cpu.data   1453512750                       # Per-requestor read total memory access latency (Tick)
system.mem_ctrls.requestorWriteTotalLat::writebacks 1578768958250                       # Per-requestor write total memory access latency (Tick)
system.mem_ctrls.requestorReadAvgLat::cpu.inst      1722.14                       # Per-requestor read average memory access latency ((Tick/Count))
system.mem_ctrls.requestorReadAvgLat::cpu.data     26844.32                       # Per-requestor read average memory access latency ((Tick/Count))
system.mem_ctrls.requestorWriteAvgLat::writebacks  11177995.87                       # Per-requestor write average memory access latency ((Tick/Count))
system.mem_ctrls.dram.bytesRead::cpu.inst      7738624                       # Number of bytes read from this memory (Byte)
system.mem_ctrls.dram.bytesRead::cpu.data      3465344                       # Number of bytes read from this memory (Byte)
system.mem_ctrls.dram.bytesRead::total       11203968                       # Number of bytes read from this memory (Byte)
system.mem_ctrls.dram.bytesInstRead::cpu.inst      7738624                       # Number of instructions bytes read from this memory (Byte)
system.mem_ctrls.dram.bytesInstRead::total      7738624                       # Number of instructions bytes read from this memory (Byte)
system.mem_ctrls.dram.bytesWritten::writebacks      1332928                       # Number of bytes written to this memory (Byte)
system.mem_ctrls.dram.bytesWritten::total      1332928                       # Number of bytes written to this memory (Byte)
system.mem_ctrls.dram.numReads::cpu.inst       120916                       # Number of read requests responded to by this memory (Count)
system.mem_ctrls.dram.numReads::cpu.data        54146                       # Number of read requests responded to by this memory (Count)
system.mem_ctrls.dram.numReads::total          175062                       # Number of read requests responded to by this memory (Count)
system.mem_ctrls.dram.numWrites::writebacks        20827                       # Number of write requests responded to by this memory (Count)
system.mem_ctrls.dram.numWrites::total          20827                       # Number of write requests responded to by this memory (Count)
system.mem_ctrls.dram.bwRead::cpu.inst      130452379                       # Total read bandwidth from this memory ((Byte/Second))
system.mem_ctrls.dram.bwRead::cpu.data       58416376                       # Total read bandwidth from this memory ((Byte/Second))
system.mem_ctrls.dram.bwRead::total         188868755                       # Total read bandwidth from this memory ((Byte/Second))
system.mem_ctrls.dram.bwInstRead::cpu.inst    130452379                       # Instruction read bandwidth from this memory ((Byte/Second))
system.mem_ctrls.dram.bwInstRead::total     130452379                       # Instruction read bandwidth from this memory ((Byte/Second))
system.mem_ctrls.dram.bwWrite::writebacks     22469580                       # Write bandwidth from this memory ((Byte/Second))
system.mem_ctrls.dram.bwWrite::total         22469580                       # Write bandwidth from this memory ((Byte/Second))
system.mem_ctrls.dram.bwTotal::writebacks     22469580                       # Total bandwidth to/from this memory ((Byte/Second))
system.mem_ctrls.dram.bwTotal::cpu.inst     130452379                       # Total bandwidth to/from this memory ((Byte/Second))
system.mem_ctrls.dram.bwTotal::cpu.data      58416376                       # Total bandwidth to/from this memory ((Byte/Second))
system.mem_ctrls.dram.bwTotal::total        211338334                       # Total bandwidth to/from this memory ((Byte/Second))
system.mem_ctrls.dram.readBursts                52016                       # Number of DRAM read bursts (Count)
system.mem_ctrls.dram.writeBursts               26224                       # Number of DRAM write bursts (Count)
system.mem_ctrls.dram.perBankRdBursts::0         1832                       # Per bank write bursts (Count)
system.mem_ctrls.dram.perBankRdBursts::1         1335                       # Per bank write bursts (Count)
system.mem_ctrls.dram.perBankRdBursts::2         5213                       # Per bank write bursts (Count)
system.mem_ctrls.dram.perBankRdBursts::3         1056                       # Per bank write bursts (Count)
system.mem_ctrls.dram.perBankRdBursts::4         1009                       # Per bank write bursts (Count)
system.mem_ctrls.dram.perBankRdBursts::5         1493                       # Per bank write bursts (Count)
system.mem_ctrls.dram.perBankRdBursts::6        10281                       # Per bank write bursts (Count)
system.mem_ctrls.dram.perBankRdBursts::7         1830                       # Per bank write bursts (Count)
system.mem_ctrls.dram.perBankRdBursts::8        15988                       # Per bank write bursts (Count)
system.mem_ctrls.dram.perBankRdBursts::9         2967                       # Per bank write bursts (Count)
system.mem_ctrls.dram.perBankRdBursts::10         1449                       # Per bank write bursts (Count)
system.mem_ctrls.dram.perBankRdBursts::11         1158                       # Per bank write bursts (Count)
system.mem_ctrls.dram.perBankRdBursts::12          899                       # Per bank write bursts (Count)
system.mem_ctrls.dram.perBankRdBursts::13         1911                       # Per bank write bursts (Count)
system.mem_ctrls.dram.perBankRdBursts::14         2077                       # Per bank write bursts (Count)
system.mem_ctrls.dram.perBankRdBursts::15         1518                       # Per bank write bursts (Count)
system.mem_ctrls.dram.perBankWrBursts::0          911                       # Per bank write bursts (Count)
system.mem_ctrls.dram.perBankWrBursts::1          869                       # Per bank write bursts (Count)
system.mem_ctrls.dram.perBankWrBursts::2          564                       # Per bank write bursts (Count)
system.mem_ctrls.dram.perBankWrBursts::3          599                       # Per bank write bursts (Count)
system.mem_ctrls.dram.perBankWrBursts::4          551                       # Per bank write bursts (Count)
system.mem_ctrls.dram.perBankWrBursts::5         1332                       # Per bank write bursts (Count)
system.mem_ctrls.dram.perBankWrBursts::6         1781                       # Per bank write bursts (Count)
system.mem_ctrls.dram.perBankWrBursts::7         1630                       # Per bank write bursts (Count)
system.mem_ctrls.dram.perBankWrBursts::8         4222                       # Per bank write bursts (Count)
system.mem_ctrls.dram.perBankWrBursts::9         4799                       # Per bank write bursts (Count)
system.mem_ctrls.dram.perBankWrBursts::10         1673                       # Per bank write bursts (Count)
system.mem_ctrls.dram.perBankWrBursts::11         1379                       # Per bank write bursts (Count)
system.mem_ctrls.dram.perBankWrBursts::12         1396                       # Per bank write bursts (Count)
system.mem_ctrls.dram.perBankWrBursts::13         2374                       # Per bank write bursts (Count)
system.mem_ctrls.dram.perBankWrBursts::14         1556                       # Per bank write bursts (Count)
system.mem_ctrls.dram.perBankWrBursts::15          588                       # Per bank write bursts (Count)
system.mem_ctrls.dram.totQLat               686449250                       # Total ticks spent queuing (Tick)
system.mem_ctrls.dram.totBusLat             260080000                       # Total ticks spent in databus transfers (Tick)
system.mem_ctrls.dram.totMemAccLat         1661749250                       # Total ticks spent from burst creation until serviced by the DRAM (Tick)
system.mem_ctrls.dram.avgQLat                13196.89                       # Average queueing delay per DRAM burst ((Tick/Count))
system.mem_ctrls.dram.avgBusLat               5000.00                       # Average bus latency per DRAM burst ((Tick/Count))
system.mem_ctrls.dram.avgMemAccLat           31946.89                       # Average memory access latency per DRAM burst ((Tick/Count))
system.mem_ctrls.dram.readRowHits               30761                       # Number of row buffer hits during reads (Count)
system.mem_ctrls.dram.writeRowHits              20843                       # Number of row buffer hits during writes (Count)
system.mem_ctrls.dram.readRowHitRate            59.14                       # Row buffer hit rate for reads (Ratio)
system.mem_ctrls.dram.writeRowHitRate           79.48                       # Row buffer hit rate for writes (Ratio)
system.mem_ctrls.dram.bytesPerActivate::samples        26623                       # Bytes accessed per row activation (Byte)
system.mem_ctrls.dram.bytesPerActivate::mean   187.930136                       # Bytes accessed per row activation (Byte)
system.mem_ctrls.dram.bytesPerActivate::gmean   134.207399                       # Bytes accessed per row activation (Byte)
system.mem_ctrls.dram.bytesPerActivate::stdev   199.785588                       # Bytes accessed per row activation (Byte)
system.mem_ctrls.dram.bytesPerActivate::0-127        10230     38.43%     38.43% # Bytes accessed per row activation (Byte)
system.mem_ctrls.dram.bytesPerActivate::128-255        10270     38.58%     77.00% # Bytes accessed per row activation (Byte)
system.mem_ctrls.dram.bytesPerActivate::256-383         3090     11.61%     88.61% # Bytes accessed per row activation (Byte)
system.mem_ctrls.dram.bytesPerActivate::384-511         1008      3.79%     92.39% # Bytes accessed per row activation (Byte)
system.mem_ctrls.dram.bytesPerActivate::512-639          525      1.97%     94.37% # Bytes accessed per row activation (Byte)
system.mem_ctrls.dram.bytesPerActivate::640-767          432      1.62%     95.99% # Bytes accessed per row activation (Byte)
system.mem_ctrls.dram.bytesPerActivate::768-895          215      0.81%     96.80% # Bytes accessed per row activation (Byte)
system.mem_ctrls.dram.bytesPerActivate::896-1023          162      0.61%     97.40% # Bytes accessed per row activation (Byte)
system.mem_ctrls.dram.bytesPerActivate::1024-1151          691      2.60%    100.00% # Bytes accessed per row activation (Byte)
system.mem_ctrls.dram.bytesPerActivate::total        26623                       # Bytes accessed per row activation (Byte)
system.mem_ctrls.dram.bytesRead               3329024                       # Total bytes read (Byte)
system.mem_ctrls.dram.bytesWritten            1678336                       # Total bytes written (Byte)
system.mem_ctrls.dram.avgRdBW               56.118387                       # Average DRAM read bandwidth in MiBytes/s ((Byte/Second))
system.mem_ctrls.dram.avgWrBW               28.292229                       # Average DRAM write bandwidth in MiBytes/s ((Byte/Second))
system.mem_ctrls.dram.peakBW                 12800.00                       # Theoretical peak bandwidth in MiByte/s ((Byte/Second))
system.mem_ctrls.dram.busUtil                    0.66                       # Data bus utilization in percentage (Ratio)
system.mem_ctrls.dram.busUtilRead                0.44                       # Data bus utilization in percentage for reads (Ratio)
system.mem_ctrls.dram.busUtilWrite               0.22                       # Data bus utilization in percentage for writes (Ratio)
system.mem_ctrls.dram.pageHitRate               65.96                       # Row buffer hit rate, read and write combined (Ratio)
system.mem_ctrls.dram.power_state.pwrStateResidencyTicks::UNDEFINED  59321448000                       # Cumulative time (in ticks) in various power states (Tick)
system.mem_ctrls.dram.rank0.actEnergy        90863640                       # Energy for activate commands per rank (pJ) (Joule)
system.mem_ctrls.dram.rank0.preEnergy        48276195                       # Energy for precharge commands per rank (pJ) (Joule)
system.mem_ctrls.dram.rank0.readEnergy      171709860                       # Energy for read commands per rank (pJ) (Joule)
system.mem_ctrls.dram.rank0.writeEnergy      42997140                       # Energy for write commands per rank (pJ) (Joule)
system.mem_ctrls.dram.rank0.refreshEnergy 4682327520.000001                       # Energy for refresh commands per rank (pJ) (Joule)
system.mem_ctrls.dram.rank0.actBackEnergy  14969947050                       # Energy for active background per rank (pJ) (Joule)
system.mem_ctrls.dram.rank0.preBackEnergy  10173165120                       # Energy for precharge background per rank (pJ) (Joule)
system.mem_ctrls.dram.rank0.actPowerDownEnergy            0                       # Energy for active power-down per rank (pJ) (Joule)
system.mem_ctrls.dram.rank0.prePowerDownEnergy            0                       # Energy for precharge power-down per rank (pJ) (Joule)
system.mem_ctrls.dram.rank0.selfRefreshEnergy            0                       # Energy for self refresh per rank (pJ) (Joule)
system.mem_ctrls.dram.rank0.totalEnergy   30179286525                       # Total energy per rank (pJ) (Joule)
system.mem_ctrls.dram.rank0.averagePower   508.741569                       # Core power per rank (mW) (Watt)
system.mem_ctrls.dram.rank0.totalIdleTime            0                       # Total Idle time Per DRAM Rank (Tick)
system.mem_ctrls.dram.rank0.pwrStateTime::IDLE  26296213500                       # Time in different power states (Tick)
system.mem_ctrls.dram.rank0.pwrStateTime::REF   1980680000                       # Time in different power states (Tick)
system.mem_ctrls.dram.rank0.pwrStateTime::SREF            0                       # Time in different power states (Tick)
system.mem_ctrls.dram.rank0.pwrStateTime::PRE_PDN            0                       # Time in different power states (Tick)
system.mem_ctrls.dram.rank0.pwrStateTime::ACT  31044554500                       # Time in different power states (Tick)
system.mem_ctrls.dram.rank0.pwrStateTime::ACT_PDN            0                       # Time in different power states (Tick)
system.mem_ctrls.dram.rank1.actEnergy        99317400                       # Energy for activate commands per rank (pJ) (Joule)
system.mem_ctrls.dram.rank1.preEnergy        52758090                       # Energy for precharge commands per rank (pJ) (Joule)
system.mem_ctrls.dram.rank1.readEnergy      199684380                       # Energy for read commands per rank (pJ) (Joule)
system.mem_ctrls.dram.rank1.writeEnergy      93892140                       # Energy for write commands per rank (pJ) (Joule)
system.mem_ctrls.dram.rank1.refreshEnergy 4682327520.000001                       # Energy for refresh commands per rank (pJ) (Joule)
system.mem_ctrls.dram.rank1.actBackEnergy  16682319390                       # Energy for active background per rank (pJ) (Joule)
system.mem_ctrls.dram.rank1.preBackEnergy   8731167360                       # Energy for precharge background per rank (pJ) (Joule)
system.mem_ctrls.dram.rank1.actPowerDownEnergy            0                       # Energy for active power-down per rank (pJ) (Joule)
system.mem_ctrls.dram.rank1.prePowerDownEnergy            0                       # Energy for precharge power-down per rank (pJ) (Joule)
system.mem_ctrls.dram.rank1.selfRefreshEnergy            0                       # Energy for self refresh per rank (pJ) (Joule)
system.mem_ctrls.dram.rank1.totalEnergy   30541466280                       # Total energy per rank (pJ) (Joule)
system.mem_ctrls.dram.rank1.averagePower   514.846945                       # Core power per rank (mW) (Watt)
system.mem_ctrls.dram.rank1.totalIdleTime            0                       # Total Idle time Per DRAM Rank (Tick)
system.mem_ctrls.dram.rank1.pwrStateTime::IDLE  22540676750                       # Time in different power states (Tick)
system.mem_ctrls.dram.rank1.pwrStateTime::REF   1980680000                       # Time in different power states (Tick)
system.mem_ctrls.dram.rank1.pwrStateTime::SREF            0                       # Time in different power states (Tick)
system.mem_ctrls.dram.rank1.pwrStateTime::PRE_PDN            0                       # Time in different power states (Tick)
system.mem_ctrls.dram.rank1.pwrStateTime::ACT  34800091250                       # Time in different power states (Tick)
system.mem_ctrls.dram.rank1.pwrStateTime::ACT_PDN            0                       # Time in different power states (Tick)
system.mem_ctrls.power_state.pwrStateResidencyTicks::UNDEFINED  59321448000                       # Cumulative time (in ticks) in various power states (Tick)
system.membus.transDist::ReadResp              163259                       # Transaction distribution (Count)
system.membus.transDist::WritebackDirty         20827                       # Transaction distribution (Count)
system.membus.transDist::WritebackClean        120412                       # Transaction distribution (Count)
system.membus.transDist::CleanEvict             32807                       # Transaction distribution (Count)
system.membus.transDist::ReadExReq              11803                       # Transaction distribution (Count)
system.membus.transDist::ReadExResp             11803                       # Transaction distribution (Count)
system.membus.transDist::ReadCleanReq          120917                       # Transaction distribution (Count)
system.membus.transDist::ReadSharedReq          42343                       # Transaction distribution (Count)
system.membus.pktCount_system.cpu.icache.mem_side_port::system.mem_ctrls.port       362245                       # Packet count per connected requestor and responder (Count)
system.membus.pktCount_system.cpu.icache.mem_side_port::total       362245                       # Packet count per connected requestor and responder (Count)
system.membus.pktCount_system.cpu.dcache.mem_side_port::system.mem_ctrls.port       161926                       # Packet count per connected requestor and responder (Count)
system.membus.pktCount_system.cpu.dcache.mem_side_port::total       161926                       # Packet count per connected requestor and responder (Count)
system.membus.pktCount::total                  524171                       # Packet count per connected requestor and responder (Count)
system.membus.pktSize_system.cpu.icache.mem_side_port::system.mem_ctrls.port     15444992                       # Cumulative packet size per connected requestor and responder (Byte)
system.membus.pktSize_system.cpu.icache.mem_side_port::total     15444992                       # Cumulative packet size per connected requestor and responder (Byte)
system.membus.pktSize_system.cpu.dcache.mem_side_port::system.mem_ctrls.port      4798272                       # Cumulative packet size per connected requestor and responder (Byte)
system.membus.pktSize_system.cpu.dcache.mem_side_port::total      4798272                       # Cumulative packet size per connected requestor and responder (Byte)
system.membus.pktSize::total                 20243264                       # Cumulative packet size per connected requestor and responder (Byte)
system.membus.snoops                                0                       # Total snoops (Count)
system.membus.snoopTraffic                          0                       # Total snoop traffic (Byte)
system.membus.snoopFanout::samples             175063                       # Request fanout histogram (Count)
system.membus.snoopFanout::mean                     0                       # Request fanout histogram (Count)
system.membus.snoopFanout::stdev                    0                       # Request fanout histogram (Count)
system.membus.snoopFanout::underflows               0      0.00%      0.00% # Request fanout histogram (Count)
system.membus.snoopFanout::0                   175063    100.00%    100.00% # Request fanout histogram (Count)
system.membus.snoopFanout::1                        0      0.00%    100.00% # Request fanout histogram (Count)
system.membus.snoopFanout::2                        0      0.00%    100.00% # Request fanout histogram (Count)
system.membus.snoopFanout::3                        0      0.00%    100.00% # Request fanout histogram (Count)
system.membus.snoopFanout::4                        0      0.00%    100.00% # Request fanout histogram (Count)
system.membus.snoopFanout::overflows                0      0.00%    100.00% # Request fanout histogram (Count)
system.membus.snoopFanout::min_value                0                       # Request fanout histogram (Count)
system.membus.snoopFanout::max_value                0                       # Request fanout histogram (Count)
system.membus.snoopFanout::total               175063                       # Request fanout histogram (Count)
system.membus.power_state.pwrStateResidencyTicks::UNDEFINED  59321448000                       # Cumulative time (in ticks) in various power states (Tick)
system.membus.reqLayer2.occupancy           951966500                       # Layer occupancy (ticks) (Tick)
system.membus.reqLayer2.utilization               0.0                       # Layer utilization (Ratio)
system.membus.respLayer1.occupancy          606841250                       # Layer occupancy (ticks) (Tick)
system.membus.respLayer1.utilization              0.0                       # Layer utilization (Ratio)
system.membus.respLayer2.occupancy          285980000                       # Layer occupancy (ticks) (Tick)
system.membus.respLayer2.utilization              0.0                       # Layer utilization (Ratio)
system.membus.snoop_filter.totRequests         349109                       # Total number of requests made to the snoop filter. (Count)
system.membus.snoop_filter.hitSingleRequests       174046                       # Number of requests hitting in the snoop filter with a single holder of the requested data. (Count)
system.membus.snoop_filter.hitMultiRequests            0                       # Number of requests hitting in the snoop filter with multiple (>1) holders of the requested data. (Count)
system.membus.snoop_filter.totSnoops                0                       # Total number of snoops made to the snoop filter. (Count)
system.membus.snoop_filter.hitSingleSnoops            0                       # Number of snoops hitting in the snoop filter with a single holder of the requested data. (Count)
system.membus.snoop_filter.hitMultiSnoops            0                       # Number of snoops hitting in the snoop filter with multiple (>1) holders of the requested data. (Count)
system.voltage_domain.voltage                       1                       # Voltage in Volts (Volt)
system.workload.inst.arm                            0                       # number of arm instructions executed (Count)
system.workload.inst.quiesce                        0                       # number of quiesce instructions executed (Count)
system.cpu.idleCycles                         9802139                       # Total number of cycles that the object has spent stopped (Unspecified)
system.cpu.tickCycles                       108840757                       # Number of cycles that the object actually ticked (Unspecified)

---------- End Simulation Statistics   ----------
