
---------- Begin Simulation Statistics ----------
simSeconds                                   0.056973                       # Number of seconds simulated (Second)
simTicks                                  56972673000                       # Number of ticks simulated (Tick)
finalTick                                 56972673000                       # Number of ticks from beginning of simulation (restored from checkpoints and never reset) (Tick)
simFreq                                  1000000000000                       # The number of ticks per simulated second ((Tick/Second))
hostSeconds                                    117.05                       # Real time elapsed on the host (Second)
hostTickRate                                486747830                       # The number of ticks simulated per host second (ticks/s) ((Tick/Second))
hostMemory                                     665652                       # Number of bytes of host memory used (Byte)
simInsts                                     34936314                       # Number of instructions simulated (Count)
simOps                                       69040940                       # Number of ops (including micro ops) simulated (Count)
hostInstRate                                   298479                       # Simulator instruction rate (inst/s) ((Count/Second))
hostOpRate                                     589853                       # Simulator op (including micro ops) rate (op/s) ((Count/Second))
system.clk_domain.clock                          1000                       # Clock period in ticks (Tick)
system.cpu.numCycles                        113945346                       # Number of cpu cycles simulated (Cycle)
system.cpu.numWorkItemsStarted                      0                       # Number of work items this cpu started (Count)
system.cpu.numWorkItemsCompleted                    0                       # Number of work items this cpu completed (Count)
system.cpu.numInsts                          34936314                       # Number of instructions committed (Count)
system.cpu.numOps                            69040940                       # Number of ops (including micro ops) committed (Count)
system.cpu.numDiscardedOps                   18635462                       # Number of ops (including micro ops) which were discarded before commit (Count)
system.cpu.numFetchSuspends                         0                       # Number of times Execute suspended instruction fetching (Count)
system.cpu.cpi                               3.261516                       # CPI: cycles per instruction ((Cycle/Count))
system.cpu.ipc                               0.306606                       # IPC: instructions per cycle ((Count/Cycle))
system.cpu.committedInstType_0::No_OpClass       850896      1.23%      1.23% # Class of committed instruction (Count)
system.cpu.committedInstType_0::IntAlu       53148416     76.98%     78.21% # Class of committed instruction (Count)
system.cpu.committedInstType_0::IntMult         89549      0.13%     78.34% # Class of committed instruction (Count)
system.cpu.committedInstType_0::IntDiv         882475      1.28%     79.62% # Class of committed instruction (Count)
system.cpu.committedInstType_0::FloatAdd       360603      0.52%     80.14% # Class of committed instruction (Count)
system.cpu.committedInstType_0::FloatCmp            0      0.00%     80.14% # Class of committed instruction (Count)
system.cpu.committedInstType_0::FloatCvt            0      0.00%     80.14% # Class of committed instruction (Count)
system.cpu.committedInstType_0::FloatMult            0      0.00%     80.14% # Class of committed instruction (Count)
system.cpu.committedInstType_0::FloatMultAcc            0      0.00%     80.14% # Class of committed instruction (Count)
system.cpu.committedInstType_0::FloatDiv            0      0.00%     80.14% # Class of committed instruction (Count)
system.cpu.committedInstType_0::FloatMisc            0      0.00%     80.14% # Class of committed instruction (Count)
system.cpu.committedInstType_0::FloatSqrt            0      0.00%     80.14% # Class of committed instruction (Count)
system.cpu.committedInstType_0::SimdAdd             0      0.00%     80.14% # Class of committed instruction (Count)
system.cpu.committedInstType_0::SimdAddAcc            0      0.00%     80.14% # Class of committed instruction (Count)
system.cpu.committedInstType_0::SimdAlu        279104      0.40%     80.55% # Class of committed instruction (Count)
system.cpu.committedInstType_0::SimdCmp           336      0.00%     80.55% # Class of committed instruction (Count)
system.cpu.committedInstType_0::SimdCvt        164462      0.24%     80.79% # Class of committed instruction (Count)
system.cpu.committedInstType_0::SimdMisc       242487      0.35%     81.14% # Class of committed instruction (Count)
system.cpu.committedInstType_0::SimdMult            0      0.00%     81.14% # Class of committed instruction (Count)
system.cpu.committedInstType_0::SimdMultAcc            0      0.00%     81.14% # Class of committed instruction (Count)
system.cpu.committedInstType_0::SimdShift            0      0.00%     81.14% # Class of committed instruction (Count)
system.cpu.committedInstType_0::SimdShiftAcc            0      0.00%     81.14% # Class of committed instruction (Count)
system.cpu.committedInstType_0::SimdDiv             0      0.00%     81.14% # Class of committed instruction (Count)
system.cpu.committedInstType_0::SimdSqrt            0      0.00%     81.14% # Class of committed instruction (Count)
system.cpu.committedInstType_0::SimdFloatAdd       278528      0.40%     81.54% # Class of committed instruction (Count)
system.cpu.committedInstType_0::SimdFloatAlu            0      0.00%     81.54% # Class of committed instruction (Count)
system.cpu.committedInstType_0::SimdFloatCmp            0      0.00%     81.54% # Class of committed instruction (Count)
system.cpu.committedInstType_0::SimdFloatCvt        16384      0.02%     81.56% # Class of committed instruction (Count)
system.cpu.committedInstType_0::SimdFloatDiv            0      0.00%     81.56% # Class of committed instruction (Count)
system.cpu.committedInstType_0::SimdFloatMisc            0      0.00%     81.56% # Class of committed instruction (Count)
system.cpu.committedInstType_0::SimdFloatMult       262144      0.38%     81.94% # Class of committed instruction (Count)
system.cpu.committedInstType_0::SimdFloatMultAcc            0      0.00%     81.94% # Class of committed instruction (Count)
system.cpu.committedInstType_0::SimdFloatSqrt            0      0.00%     81.94% # Class of committed instruction (Count)
system.cpu.committedInstType_0::SimdReduceAdd            0      0.00%     81.94% # Class of committed instruction (Count)
system.cpu.committedInstType_0::SimdReduceAlu            0      0.00%     81.94% # Class of committed instruction (Count)
system.cpu.committedInstType_0::SimdReduceCmp            0      0.00%     81.94% # Class of committed instruction (Count)
system.cpu.committedInstType_0::SimdFloatReduceAdd            0      0.00%     81.94% # Class of committed instruction (Count)
system.cpu.committedInstType_0::SimdFloatReduceCmp            0      0.00%     81.94% # Class of committed instruction (Count)
system.cpu.committedInstType_0::SimdAes             0      0.00%     81.94% # Class of committed instruction (Count)
system.cpu.committedInstType_0::SimdAesMix            0      0.00%     81.94% # Class of committed instruction (Count)
system.cpu.committedInstType_0::SimdSha1Hash            0      0.00%     81.94% # Class of committed instruction (Count)
system.cpu.committedInstType_0::SimdSha1Hash2            0      0.00%     81.94% # Class of committed instruction (Count)
system.cpu.committedInstType_0::SimdSha256Hash            0      0.00%     81.94% # Class of committed instruction (Count)
system.cpu.committedInstType_0::SimdSha256Hash2            0      0.00%     81.94% # Class of committed instruction (Count)
system.cpu.committedInstType_0::SimdShaSigma2            0      0.00%     81.94% # Class of committed instruction (Count)
system.cpu.committedInstType_0::SimdShaSigma3            0      0.00%     81.94% # Class of committed instruction (Count)
system.cpu.committedInstType_0::SimdPredAlu            0      0.00%     81.94% # Class of committed instruction (Count)
system.cpu.committedInstType_0::MemRead       6758209      9.79%     91.73% # Class of committed instruction (Count)
system.cpu.committedInstType_0::MemWrite      4632683      6.71%     98.44% # Class of committed instruction (Count)
system.cpu.committedInstType_0::FloatMemRead       594885      0.86%     99.31% # Class of committed instruction (Count)
system.cpu.committedInstType_0::FloatMemWrite       479779      0.69%    100.00% # Class of committed instruction (Count)
system.cpu.committedInstType_0::IprAccess            0      0.00%    100.00% # Class of committed instruction (Count)
system.cpu.committedInstType_0::InstPrefetch            0      0.00%    100.00% # Class of committed instruction (Count)
system.cpu.committedInstType_0::total        69040940                       # Class of committed instruction (Count)
system.cpu.branchPred.lookups                       0                       # Number of BP lookups (Count)
system.cpu.branchPred.condPredicted                 0                       # Number of conditional branches predicted (Count)
system.cpu.branchPred.condIncorrect                 0                       # Number of conditional branches incorrect (Count)
system.cpu.branchPred.BTBLookups                    0                       # Number of BTB lookups (Count)
system.cpu.branchPred.BTBHits                       0                       # Number of BTB hits (Count)
system.cpu.branchPred.BTBHitRatio                 nan                       # BTB Hit Ratio (Ratio)
system.cpu.branchPred.RASUsed                       0                       # Number of times the RAS was used to get a target. (Count)
system.cpu.branchPred.RASIncorrect                  0                       # Number of incorrect RAS predictions. (Count)
system.cpu.branchPred.indirectLookups               0                       # Number of indirect predictor lookups. (Count)
system.cpu.branchPred.indirectHits                  0                       # Number of indirect target hits. (Count)
system.cpu.branchPred.indirectMisses                0                       # Number of indirect misses. (Count)
system.cpu.branchPred.indirectMispredicted            0                       # Number of mispredicted indirect branches. (Count)
system.cpu.dcache.demandHits::cpu.data       14145292                       # number of demand (read+write) hits (Count)
system.cpu.dcache.demandHits::total          14145292                       # number of demand (read+write) hits (Count)
system.cpu.dcache.overallHits::cpu.data      14145292                       # number of overall hits (Count)
system.cpu.dcache.overallHits::total         14145292                       # number of overall hits (Count)
system.cpu.dcache.demandMisses::cpu.data        11428                       # number of demand (read+write) misses (Count)
system.cpu.dcache.demandMisses::total           11428                       # number of demand (read+write) misses (Count)
system.cpu.dcache.overallMisses::cpu.data        11428                       # number of overall misses (Count)
system.cpu.dcache.overallMisses::total          11428                       # number of overall misses (Count)
system.cpu.dcache.demandMissLatency::cpu.data    757121500                       # number of demand (read+write) miss ticks (Tick)
system.cpu.dcache.demandMissLatency::total    757121500                       # number of demand (read+write) miss ticks (Tick)
system.cpu.dcache.overallMissLatency::cpu.data    757121500                       # number of overall miss ticks (Tick)
system.cpu.dcache.overallMissLatency::total    757121500                       # number of overall miss ticks (Tick)
system.cpu.dcache.demandAccesses::cpu.data     14156720                       # number of demand (read+write) accesses (Count)
system.cpu.dcache.demandAccesses::total      14156720                       # number of demand (read+write) accesses (Count)
system.cpu.dcache.overallAccesses::cpu.data     14156720                       # number of overall (read+write) accesses (Count)
system.cpu.dcache.overallAccesses::total     14156720                       # number of overall (read+write) accesses (Count)
system.cpu.dcache.demandMissRate::cpu.data     0.000807                       # miss rate for demand accesses (Ratio)
system.cpu.dcache.demandMissRate::total      0.000807                       # miss rate for demand accesses (Ratio)
system.cpu.dcache.overallMissRate::cpu.data     0.000807                       # miss rate for overall accesses (Ratio)
system.cpu.dcache.overallMissRate::total     0.000807                       # miss rate for overall accesses (Ratio)
system.cpu.dcache.demandAvgMissLatency::cpu.data 66251.443822                       # average overall miss latency ((Cycle/Count))
system.cpu.dcache.demandAvgMissLatency::total 66251.443822                       # average overall miss latency ((Cycle/Count))
system.cpu.dcache.overallAvgMissLatency::cpu.data 66251.443822                       # average overall miss latency ((Cycle/Count))
system.cpu.dcache.overallAvgMissLatency::total 66251.443822                       # average overall miss latency ((Cycle/Count))
system.cpu.dcache.blockedCycles::no_mshrs            0                       # number of cycles access was blocked (Cycle)
system.cpu.dcache.blockedCycles::no_targets            0                       # number of cycles access was blocked (Cycle)
system.cpu.dcache.blockedCauses::no_mshrs            0                       # number of times access was blocked (Count)
system.cpu.dcache.blockedCauses::no_targets            0                       # number of times access was blocked (Count)
system.cpu.dcache.avgBlocked::no_mshrs            nan                       # average number of cycles each access was blocked ((Cycle/Count))
system.cpu.dcache.avgBlocked::no_targets          nan                       # average number of cycles each access was blocked ((Cycle/Count))
system.cpu.dcache.writebacks::writebacks         2021                       # number of writebacks (Count)
system.cpu.dcache.writebacks::total              2021                       # number of writebacks (Count)
system.cpu.dcache.demandMshrHits::cpu.data         5310                       # number of demand (read+write) MSHR hits (Count)
system.cpu.dcache.demandMshrHits::total          5310                       # number of demand (read+write) MSHR hits (Count)
system.cpu.dcache.overallMshrHits::cpu.data         5310                       # number of overall MSHR hits (Count)
system.cpu.dcache.overallMshrHits::total         5310                       # number of overall MSHR hits (Count)
system.cpu.dcache.demandMshrMisses::cpu.data         6118                       # number of demand (read+write) MSHR misses (Count)
system.cpu.dcache.demandMshrMisses::total         6118                       # number of demand (read+write) MSHR misses (Count)
system.cpu.dcache.overallMshrMisses::cpu.data         6118                       # number of overall MSHR misses (Count)
system.cpu.dcache.overallMshrMisses::total         6118                       # number of overall MSHR misses (Count)
system.cpu.dcache.demandMshrMissLatency::cpu.data    393808000                       # number of demand (read+write) MSHR miss ticks (Tick)
system.cpu.dcache.demandMshrMissLatency::total    393808000                       # number of demand (read+write) MSHR miss ticks (Tick)
system.cpu.dcache.overallMshrMissLatency::cpu.data    393808000                       # number of overall MSHR miss ticks (Tick)
system.cpu.dcache.overallMshrMissLatency::total    393808000                       # number of overall MSHR miss ticks (Tick)
system.cpu.dcache.demandMshrMissRate::cpu.data     0.000432                       # mshr miss ratio for demand accesses (Ratio)
system.cpu.dcache.demandMshrMissRate::total     0.000432                       # mshr miss ratio for demand accesses (Ratio)
system.cpu.dcache.overallMshrMissRate::cpu.data     0.000432                       # mshr miss ratio for overall accesses (Ratio)
system.cpu.dcache.overallMshrMissRate::total     0.000432                       # mshr miss ratio for overall accesses (Ratio)
system.cpu.dcache.demandAvgMshrMissLatency::cpu.data 64368.747957                       # average overall mshr miss latency ((Cycle/Count))
system.cpu.dcache.demandAvgMshrMissLatency::total 64368.747957                       # average overall mshr miss latency ((Cycle/Count))
system.cpu.dcache.overallAvgMshrMissLatency::cpu.data 64368.747957                       # average overall mshr miss latency ((Cycle/Count))
system.cpu.dcache.overallAvgMshrMissLatency::total 64368.747957                       # average overall mshr miss latency ((Cycle/Count))
system.cpu.dcache.replacements                   2102                       # number of replacements (Count)
system.cpu.dcache.ReadReq.hits::cpu.data      9036693                       # number of ReadReq hits (Count)
system.cpu.dcache.ReadReq.hits::total         9036693                       # number of ReadReq hits (Count)
system.cpu.dcache.ReadReq.misses::cpu.data         7601                       # number of ReadReq misses (Count)
system.cpu.dcache.ReadReq.misses::total          7601                       # number of ReadReq misses (Count)
system.cpu.dcache.ReadReq.missLatency::cpu.data    533119500                       # number of ReadReq miss ticks (Tick)
system.cpu.dcache.ReadReq.missLatency::total    533119500                       # number of ReadReq miss ticks (Tick)
system.cpu.dcache.ReadReq.accesses::cpu.data      9044294                       # number of ReadReq accesses(hits+misses) (Count)
system.cpu.dcache.ReadReq.accesses::total      9044294                       # number of ReadReq accesses(hits+misses) (Count)
system.cpu.dcache.ReadReq.missRate::cpu.data     0.000840                       # miss rate for ReadReq accesses (Ratio)
system.cpu.dcache.ReadReq.missRate::total     0.000840                       # miss rate for ReadReq accesses (Ratio)
system.cpu.dcache.ReadReq.avgMissLatency::cpu.data 70138.073938                       # average ReadReq miss latency ((Tick/Count))
system.cpu.dcache.ReadReq.avgMissLatency::total 70138.073938                       # average ReadReq miss latency ((Tick/Count))
system.cpu.dcache.ReadReq.mshrHits::cpu.data         3684                       # number of ReadReq MSHR hits (Count)
system.cpu.dcache.ReadReq.mshrHits::total         3684                       # number of ReadReq MSHR hits (Count)
system.cpu.dcache.ReadReq.mshrMisses::cpu.data         3917                       # number of ReadReq MSHR misses (Count)
system.cpu.dcache.ReadReq.mshrMisses::total         3917                       # number of ReadReq MSHR misses (Count)
system.cpu.dcache.ReadReq.mshrMissLatency::cpu.data    266547000                       # number of ReadReq MSHR miss ticks (Tick)
system.cpu.dcache.ReadReq.mshrMissLatency::total    266547000                       # number of ReadReq MSHR miss ticks (Tick)
system.cpu.dcache.ReadReq.mshrMissRate::cpu.data     0.000433                       # mshr miss rate for ReadReq accesses (Ratio)
system.cpu.dcache.ReadReq.mshrMissRate::total     0.000433                       # mshr miss rate for ReadReq accesses (Ratio)
system.cpu.dcache.ReadReq.avgMshrMissLatency::cpu.data 68048.761808                       # average ReadReq mshr miss latency ((Tick/Count))
system.cpu.dcache.ReadReq.avgMshrMissLatency::total 68048.761808                       # average ReadReq mshr miss latency ((Tick/Count))
system.cpu.dcache.WriteReq.hits::cpu.data      5108599                       # number of WriteReq hits (Count)
system.cpu.dcache.WriteReq.hits::total        5108599                       # number of WriteReq hits (Count)
system.cpu.dcache.WriteReq.misses::cpu.data         3827                       # number of WriteReq misses (Count)
system.cpu.dcache.WriteReq.misses::total         3827                       # number of WriteReq misses (Count)
system.cpu.dcache.WriteReq.missLatency::cpu.data    224002000                       # number of WriteReq miss ticks (Tick)
system.cpu.dcache.WriteReq.missLatency::total    224002000                       # number of WriteReq miss ticks (Tick)
system.cpu.dcache.WriteReq.accesses::cpu.data      5112426                       # number of WriteReq accesses(hits+misses) (Count)
system.cpu.dcache.WriteReq.accesses::total      5112426                       # number of WriteReq accesses(hits+misses) (Count)
system.cpu.dcache.WriteReq.missRate::cpu.data     0.000749                       # miss rate for WriteReq accesses (Ratio)
system.cpu.dcache.WriteReq.missRate::total     0.000749                       # miss rate for WriteReq accesses (Ratio)
system.cpu.dcache.WriteReq.avgMissLatency::cpu.data 58532.009407                       # average WriteReq miss latency ((Tick/Count))
system.cpu.dcache.WriteReq.avgMissLatency::total 58532.009407                       # average WriteReq miss latency ((Tick/Count))
system.cpu.dcache.WriteReq.mshrHits::cpu.data         1626                       # number of WriteReq MSHR hits (Count)
system.cpu.dcache.WriteReq.mshrHits::total         1626                       # number of WriteReq MSHR hits (Count)
system.cpu.dcache.WriteReq.mshrMisses::cpu.data         2201                       # number of WriteReq MSHR misses (Count)
system.cpu.dcache.WriteReq.mshrMisses::total         2201                       # number of WriteReq MSHR misses (Count)
system.cpu.dcache.WriteReq.mshrMissLatency::cpu.data    127261000                       # number of WriteReq MSHR miss ticks (Tick)
system.cpu.dcache.WriteReq.mshrMissLatency::total    127261000                       # number of WriteReq MSHR miss ticks (Tick)
system.cpu.dcache.WriteReq.mshrMissRate::cpu.data     0.000431                       # mshr miss rate for WriteReq accesses (Ratio)
system.cpu.dcache.WriteReq.mshrMissRate::total     0.000431                       # mshr miss rate for WriteReq accesses (Ratio)
system.cpu.dcache.WriteReq.avgMshrMissLatency::cpu.data 57819.627442                       # average WriteReq mshr miss latency ((Tick/Count))
system.cpu.dcache.WriteReq.avgMshrMissLatency::total 57819.627442                       # average WriteReq mshr miss latency ((Tick/Count))
system.cpu.dcache.power_state.pwrStateResidencyTicks::UNDEFINED  56972673000                       # Cumulative time (in ticks) in various power states (Tick)
system.cpu.dcache.tags.tagsInUse          3656.750457                       # Average ticks per tags in use ((Tick/Count))
system.cpu.dcache.tags.totalRefs             14151410                       # Total number of references to valid blocks. (Count)
system.cpu.dcache.tags.sampledRefs               6118                       # Sample count of references to valid blocks. (Count)
system.cpu.dcache.tags.avgRefs            2313.077803                       # Average number of references to valid blocks. ((Count/Count))
system.cpu.dcache.tags.warmupTick              145000                       # The tick when the warmup percentage was hit. (Tick)
system.cpu.dcache.tags.occupancies::cpu.data  3656.750457                       # Average occupied blocks per tick, per requestor ((Count/Tick))
system.cpu.dcache.tags.avgOccs::cpu.data     0.892761                       # Average percentage of cache occupancy ((Ratio/Tick))
system.cpu.dcache.tags.avgOccs::total        0.892761                       # Average percentage of cache occupancy ((Ratio/Tick))
system.cpu.dcache.tags.occupanciesTaskId::1024         4016                       # Occupied blocks per task id (Count)
system.cpu.dcache.tags.ageTaskId_1024::0           23                       # Occupied blocks per task id, per block age (Count)
system.cpu.dcache.tags.ageTaskId_1024::1           32                       # Occupied blocks per task id, per block age (Count)
system.cpu.dcache.tags.ageTaskId_1024::2          169                       # Occupied blocks per task id, per block age (Count)
system.cpu.dcache.tags.ageTaskId_1024::3         1604                       # Occupied blocks per task id, per block age (Count)
system.cpu.dcache.tags.ageTaskId_1024::4         2188                       # Occupied blocks per task id, per block age (Count)
system.cpu.dcache.tags.ratioOccsTaskId::1024     0.980469                       # Ratio of occupied blocks and all blocks, per task id (Ratio)
system.cpu.dcache.tags.tagAccesses           28319558                       # Number of tag accesses (Count)
system.cpu.dcache.tags.dataAccesses          28319558                       # Number of data accesses (Count)
system.cpu.dcache.tags.power_state.pwrStateResidencyTicks::UNDEFINED  56972673000                       # Cumulative time (in ticks) in various power states (Tick)
system.cpu.dtb_walker_cache.blockedCycles::no_mshrs            0                       # number of cycles access was blocked (Cycle)
system.cpu.dtb_walker_cache.blockedCycles::no_targets            0                       # number of cycles access was blocked (Cycle)
system.cpu.dtb_walker_cache.blockedCauses::no_mshrs            0                       # number of times access was blocked (Count)
system.cpu.dtb_walker_cache.blockedCauses::no_targets            0                       # number of times access was blocked (Count)
system.cpu.dtb_walker_cache.avgBlocked::no_mshrs          nan                       # average number of cycles each access was blocked ((Cycle/Count))
system.cpu.dtb_walker_cache.avgBlocked::no_targets          nan                       # average number of cycles each access was blocked ((Cycle/Count))
system.cpu.dtb_walker_cache.replacements            0                       # number of replacements (Count)
system.cpu.dtb_walker_cache.power_state.pwrStateResidencyTicks::UNDEFINED  56972673000                       # Cumulative time (in ticks) in various power states (Tick)
system.cpu.dtb_walker_cache.tags.tagsInUse            0                       # Average ticks per tags in use ((Tick/Count))
system.cpu.dtb_walker_cache.tags.totalRefs            0                       # Total number of references to valid blocks. (Count)
system.cpu.dtb_walker_cache.tags.sampledRefs            0                       # Sample count of references to valid blocks. (Count)
system.cpu.dtb_walker_cache.tags.avgRefs          nan                       # Average number of references to valid blocks. ((Count/Count))
system.cpu.dtb_walker_cache.tags.warmupTick            0                       # The tick when the warmup percentage was hit. (Tick)
system.cpu.dtb_walker_cache.tags.tagAccesses            0                       # Number of tag accesses (Count)
system.cpu.dtb_walker_cache.tags.dataAccesses            0                       # Number of data accesses (Count)
system.cpu.dtb_walker_cache.tags.power_state.pwrStateResidencyTicks::UNDEFINED  56972673000                       # Cumulative time (in ticks) in various power states (Tick)
system.cpu.fetch2.intInstructions                   8                       # Number of integer instructions successfully decoded (Count)
system.cpu.fetch2.fpInstructions                    0                       # Number of floating point instructions successfully decoded (Count)
system.cpu.fetch2.vecInstructions                   0                       # Number of SIMD instructions successfully decoded (Count)
system.cpu.fetch2.loadInstructions                  0                       # Number of memory load instructions successfully decoded (Count)
system.cpu.fetch2.storeInstructions                 0                       # Number of memory store instructions successfully decoded (Count)
system.cpu.fetch2.amoInstructions                   0                       # Number of memory atomic instructions successfully decoded (Count)
system.cpu.icache.demandHits::cpu.inst       15762186                       # number of demand (read+write) hits (Count)
system.cpu.icache.demandHits::total          15762186                       # number of demand (read+write) hits (Count)
system.cpu.icache.overallHits::cpu.inst      15762186                       # number of overall hits (Count)
system.cpu.icache.overallHits::total         15762186                       # number of overall hits (Count)
system.cpu.icache.demandMisses::cpu.inst       120908                       # number of demand (read+write) misses (Count)
system.cpu.icache.demandMisses::total          120908                       # number of demand (read+write) misses (Count)
system.cpu.icache.overallMisses::cpu.inst       120908                       # number of overall misses (Count)
system.cpu.icache.overallMisses::total         120908                       # number of overall misses (Count)
system.cpu.icache.demandMissLatency::cpu.inst   2948799500                       # number of demand (read+write) miss ticks (Tick)
system.cpu.icache.demandMissLatency::total   2948799500                       # number of demand (read+write) miss ticks (Tick)
system.cpu.icache.overallMissLatency::cpu.inst   2948799500                       # number of overall miss ticks (Tick)
system.cpu.icache.overallMissLatency::total   2948799500                       # number of overall miss ticks (Tick)
system.cpu.icache.demandAccesses::cpu.inst     15883094                       # number of demand (read+write) accesses (Count)
system.cpu.icache.demandAccesses::total      15883094                       # number of demand (read+write) accesses (Count)
system.cpu.icache.overallAccesses::cpu.inst     15883094                       # number of overall (read+write) accesses (Count)
system.cpu.icache.overallAccesses::total     15883094                       # number of overall (read+write) accesses (Count)
system.cpu.icache.demandMissRate::cpu.inst     0.007612                       # miss rate for demand accesses (Ratio)
system.cpu.icache.demandMissRate::total      0.007612                       # miss rate for demand accesses (Ratio)
system.cpu.icache.overallMissRate::cpu.inst     0.007612                       # miss rate for overall accesses (Ratio)
system.cpu.icache.overallMissRate::total     0.007612                       # miss rate for overall accesses (Ratio)
system.cpu.icache.demandAvgMissLatency::cpu.inst 24388.787342                       # average overall miss latency ((Cycle/Count))
system.cpu.icache.demandAvgMissLatency::total 24388.787342                       # average overall miss latency ((Cycle/Count))
system.cpu.icache.overallAvgMissLatency::cpu.inst 24388.787342                       # average overall miss latency ((Cycle/Count))
system.cpu.icache.overallAvgMissLatency::total 24388.787342                       # average overall miss latency ((Cycle/Count))
system.cpu.icache.blockedCycles::no_mshrs            0                       # number of cycles access was blocked (Cycle)
system.cpu.icache.blockedCycles::no_targets            0                       # number of cycles access was blocked (Cycle)
system.cpu.icache.blockedCauses::no_mshrs            0                       # number of times access was blocked (Count)
system.cpu.icache.blockedCauses::no_targets            0                       # number of times access was blocked (Count)
system.cpu.icache.avgBlocked::no_mshrs            nan                       # average number of cycles each access was blocked ((Cycle/Count))
system.cpu.icache.avgBlocked::no_targets          nan                       # average number of cycles each access was blocked ((Cycle/Count))
system.cpu.icache.writebacks::writebacks       120405                       # number of writebacks (Count)
system.cpu.icache.writebacks::total            120405                       # number of writebacks (Count)
system.cpu.icache.demandMshrMisses::cpu.inst       120908                       # number of demand (read+write) MSHR misses (Count)
system.cpu.icache.demandMshrMisses::total       120908                       # number of demand (read+write) MSHR misses (Count)
system.cpu.icache.overallMshrMisses::cpu.inst       120908                       # number of overall MSHR misses (Count)
system.cpu.icache.overallMshrMisses::total       120908                       # number of overall MSHR misses (Count)
system.cpu.icache.demandMshrMissLatency::cpu.inst   2827892500                       # number of demand (read+write) MSHR miss ticks (Tick)
system.cpu.icache.demandMshrMissLatency::total   2827892500                       # number of demand (read+write) MSHR miss ticks (Tick)
system.cpu.icache.overallMshrMissLatency::cpu.inst   2827892500                       # number of overall MSHR miss ticks (Tick)
system.cpu.icache.overallMshrMissLatency::total   2827892500                       # number of overall MSHR miss ticks (Tick)
system.cpu.icache.demandMshrMissRate::cpu.inst     0.007612                       # mshr miss ratio for demand accesses (Ratio)
system.cpu.icache.demandMshrMissRate::total     0.007612                       # mshr miss ratio for demand accesses (Ratio)
system.cpu.icache.overallMshrMissRate::cpu.inst     0.007612                       # mshr miss ratio for overall accesses (Ratio)
system.cpu.icache.overallMshrMissRate::total     0.007612                       # mshr miss ratio for overall accesses (Ratio)
system.cpu.icache.demandAvgMshrMissLatency::cpu.inst 23388.795613                       # average overall mshr miss latency ((Cycle/Count))
system.cpu.icache.demandAvgMshrMissLatency::total 23388.795613                       # average overall mshr miss latency ((Cycle/Count))
system.cpu.icache.overallAvgMshrMissLatency::cpu.inst 23388.795613                       # average overall mshr miss latency ((Cycle/Count))
system.cpu.icache.overallAvgMshrMissLatency::total 23388.795613                       # average overall mshr miss latency ((Cycle/Count))
system.cpu.icache.replacements                 120405                       # number of replacements (Count)
system.cpu.icache.ReadReq.hits::cpu.inst     15762186                       # number of ReadReq hits (Count)
system.cpu.icache.ReadReq.hits::total        15762186                       # number of ReadReq hits (Count)
system.cpu.icache.ReadReq.misses::cpu.inst       120908                       # number of ReadReq misses (Count)
system.cpu.icache.ReadReq.misses::total        120908                       # number of ReadReq misses (Count)
system.cpu.icache.ReadReq.missLatency::cpu.inst   2948799500                       # number of ReadReq miss ticks (Tick)
system.cpu.icache.ReadReq.missLatency::total   2948799500                       # number of ReadReq miss ticks (Tick)
system.cpu.icache.ReadReq.accesses::cpu.inst     15883094                       # number of ReadReq accesses(hits+misses) (Count)
system.cpu.icache.ReadReq.accesses::total     15883094                       # number of ReadReq accesses(hits+misses) (Count)
system.cpu.icache.ReadReq.missRate::cpu.inst     0.007612                       # miss rate for ReadReq accesses (Ratio)
system.cpu.icache.ReadReq.missRate::total     0.007612                       # miss rate for ReadReq accesses (Ratio)
system.cpu.icache.ReadReq.avgMissLatency::cpu.inst 24388.787342                       # average ReadReq miss latency ((Tick/Count))
system.cpu.icache.ReadReq.avgMissLatency::total 24388.787342                       # average ReadReq miss latency ((Tick/Count))
system.cpu.icache.ReadReq.mshrMisses::cpu.inst       120908                       # number of ReadReq MSHR misses (Count)
system.cpu.icache.ReadReq.mshrMisses::total       120908                       # number of ReadReq MSHR misses (Count)
system.cpu.icache.ReadReq.mshrMissLatency::cpu.inst   2827892500                       # number of ReadReq MSHR miss ticks (Tick)
system.cpu.icache.ReadReq.mshrMissLatency::total   2827892500                       # number of ReadReq MSHR miss ticks (Tick)
system.cpu.icache.ReadReq.mshrMissRate::cpu.inst     0.007612                       # mshr miss rate for ReadReq accesses (Ratio)
system.cpu.icache.ReadReq.mshrMissRate::total     0.007612                       # mshr miss rate for ReadReq accesses (Ratio)
system.cpu.icache.ReadReq.avgMshrMissLatency::cpu.inst 23388.795613                       # average ReadReq mshr miss latency ((Tick/Count))
system.cpu.icache.ReadReq.avgMshrMissLatency::total 23388.795613                       # average ReadReq mshr miss latency ((Tick/Count))
system.cpu.icache.power_state.pwrStateResidencyTicks::UNDEFINED  56972673000                       # Cumulative time (in ticks) in various power states (Tick)
system.cpu.icache.tags.tagsInUse           465.054707                       # Average ticks per tags in use ((Tick/Count))
system.cpu.icache.tags.totalRefs             15883093                       # Total number of references to valid blocks. (Count)
system.cpu.icache.tags.sampledRefs             120907                       # Sample count of references to valid blocks. (Count)
system.cpu.icache.tags.avgRefs             131.366199                       # Average number of references to valid blocks. ((Count/Count))
system.cpu.icache.tags.warmupTick               77000                       # The tick when the warmup percentage was hit. (Tick)
system.cpu.icache.tags.occupancies::cpu.inst   465.054707                       # Average occupied blocks per tick, per requestor ((Count/Tick))
system.cpu.icache.tags.avgOccs::cpu.inst     0.908310                       # Average percentage of cache occupancy ((Ratio/Tick))
system.cpu.icache.tags.avgOccs::total        0.908310                       # Average percentage of cache occupancy ((Ratio/Tick))
system.cpu.icache.tags.occupanciesTaskId::1024          502                       # Occupied blocks per task id (Count)
system.cpu.icache.tags.ageTaskId_1024::0          116                       # Occupied blocks per task id, per block age (Count)
system.cpu.icache.tags.ageTaskId_1024::1           50                       # Occupied blocks per task id, per block age (Count)
system.cpu.icache.tags.ageTaskId_1024::2            2                       # Occupied blocks per task id, per block age (Count)
system.cpu.icache.tags.ageTaskId_1024::3           93                       # Occupied blocks per task id, per block age (Count)
system.cpu.icache.tags.ageTaskId_1024::4          241                       # Occupied blocks per task id, per block age (Count)
system.cpu.icache.tags.ratioOccsTaskId::1024     0.980469                       # Ratio of occupied blocks and all blocks, per task id (Ratio)
system.cpu.icache.tags.tagAccesses           31887095                       # Number of tag accesses (Count)
system.cpu.icache.tags.dataAccesses          31887095                       # Number of data accesses (Count)
system.cpu.icache.tags.power_state.pwrStateResidencyTicks::UNDEFINED  56972673000                       # Cumulative time (in ticks) in various power states (Tick)
system.cpu.interrupts.clk_domain.clock           8000                       # Clock period in ticks (Tick)
system.cpu.itb_walker_cache.blockedCycles::no_mshrs            0                       # number of cycles access was blocked (Cycle)
system.cpu.itb_walker_cache.blockedCycles::no_targets            0                       # number of cycles access was blocked (Cycle)
system.cpu.itb_walker_cache.blockedCauses::no_mshrs            0                       # number of times access was blocked (Count)
system.cpu.itb_walker_cache.blockedCauses::no_targets            0                       # number of times access was blocked (Count)
system.cpu.itb_walker_cache.avgBlocked::no_mshrs          nan                       # average number of cycles each access was blocked ((Cycle/Count))
system.cpu.itb_walker_cache.avgBlocked::no_targets          nan                       # average number of cycles each access was blocked ((Cycle/Count))
system.cpu.itb_walker_cache.replacements            0                       # number of replacements (Count)
system.cpu.itb_walker_cache.power_state.pwrStateResidencyTicks::UNDEFINED  56972673000                       # Cumulative time (in ticks) in various power states (Tick)
system.cpu.itb_walker_cache.tags.tagsInUse            0                       # Average ticks per tags in use ((Tick/Count))
system.cpu.itb_walker_cache.tags.totalRefs            0                       # Total number of references to valid blocks. (Count)
system.cpu.itb_walker_cache.tags.sampledRefs            0                       # Sample count of references to valid blocks. (Count)
system.cpu.itb_walker_cache.tags.avgRefs          nan                       # Average number of references to valid blocks. ((Count/Count))
system.cpu.itb_walker_cache.tags.warmupTick            0                       # The tick when the warmup percentage was hit. (Tick)
system.cpu.itb_walker_cache.tags.tagAccesses            0                       # Number of tag accesses (Count)
system.cpu.itb_walker_cache.tags.dataAccesses            0                       # Number of data accesses (Count)
system.cpu.itb_walker_cache.tags.power_state.pwrStateResidencyTicks::UNDEFINED  56972673000                       # Cumulative time (in ticks) in various power states (Tick)
system.cpu.mmu.dtb.rdAccesses                 9464020                       # TLB accesses on read requests (Count)
system.cpu.mmu.dtb.wrAccesses                 5415122                       # TLB accesses on write requests (Count)
system.cpu.mmu.dtb.rdMisses                    209934                       # TLB misses on read requests (Count)
system.cpu.mmu.dtb.wrMisses                       114                       # TLB misses on write requests (Count)
system.cpu.mmu.dtb.walker.power_state.pwrStateResidencyTicks::UNDEFINED  56972673000                       # Cumulative time (in ticks) in various power states (Tick)
system.cpu.mmu.itb.rdAccesses                       0                       # TLB accesses on read requests (Count)
system.cpu.mmu.itb.wrAccesses                15883094                       # TLB accesses on write requests (Count)
system.cpu.mmu.itb.rdMisses                         0                       # TLB misses on read requests (Count)
system.cpu.mmu.itb.wrMisses                        96                       # TLB misses on write requests (Count)
system.cpu.mmu.itb.walker.power_state.pwrStateResidencyTicks::UNDEFINED  56972673000                       # Cumulative time (in ticks) in various power states (Tick)
system.cpu.power_state.pwrStateResidencyTicks::ON  56972673000                       # Cumulative time (in ticks) in various power states (Tick)
system.cpu.thread_0.numInsts                 34936314                       # Number of Instructions committed (Count)
system.cpu.thread_0.numOps                   69040940                       # Number of Ops committed (Count)
system.cpu.thread_0.numMemRefs                      0                       # Number of Memory References (Count)
system.cpu.workload.numSyscalls                  4123                       # Number of system calls (Count)
system.cpu_clk_domain.clock                       500                       # Clock period in ticks (Tick)
system.cpu_voltage_domain.voltage                   1                       # Voltage in Volts (Volt)
system.mem_ctrls.avgPriority_writebacks::samples      9782.00                       # Average QoS priority value for accepted requests (Count)
system.mem_ctrls.avgPriority_cpu.inst::samples      3905.00                       # Average QoS priority value for accepted requests (Count)
system.mem_ctrls.avgPriority_cpu.data::samples      6111.00                       # Average QoS priority value for accepted requests (Count)
system.mem_ctrls.priorityMinLatency      0.000000018750                       # per QoS priority minimum request to response latency (Second)
system.mem_ctrls.priorityMaxLatency      0.030451980500                       # per QoS priority maximum request to response latency (Second)
system.mem_ctrls.numReadWriteTurnArounds          542                       # Number of turnarounds from READ to WRITE (Count)
system.mem_ctrls.numWriteReadTurnArounds          542                       # Number of turnarounds from WRITE to READ (Count)
system.mem_ctrls.numStayReadState              156528                       # Number of times bus staying in READ state (Count)
system.mem_ctrls.numStayWriteState               9224                       # Number of times bus staying in WRITE state (Count)
system.mem_ctrls.readReqs                      127026                       # Number of read requests accepted (Count)
system.mem_ctrls.writeReqs                     122426                       # Number of write requests accepted (Count)
system.mem_ctrls.readBursts                    127026                       # Number of controller read bursts, including those serviced by the write queue (Count)
system.mem_ctrls.writeBursts                   122426                       # Number of controller write bursts, including those merged in the write queue (Count)
system.mem_ctrls.servicedByWrQ                 117010                       # Number of controller read bursts serviced by the write queue (Count)
system.mem_ctrls.mergedWrBursts                112644                       # Number of controller write bursts merged with an existing one (Count)
system.mem_ctrls.neitherReadNorWriteReqs            0                       # Number of requests that are neither read nor write (Count)
system.mem_ctrls.avgRdQLen                       1.00                       # Average read queue length when enqueuing ((Count/Tick))
system.mem_ctrls.avgWrQLen                      27.71                       # Average write queue length when enqueuing ((Count/Tick))
system.mem_ctrls.numRdRetry                         0                       # Number of times read queue was full causing retry (Count)
system.mem_ctrls.numWrRetry                         0                       # Number of times write queue was full causing retry (Count)
system.mem_ctrls.readPktSize::0                     0                       # Read request sizes (log2) (Count)
system.mem_ctrls.readPktSize::1                     0                       # Read request sizes (log2) (Count)
system.mem_ctrls.readPktSize::2                     0                       # Read request sizes (log2) (Count)
system.mem_ctrls.readPktSize::3                     0                       # Read request sizes (log2) (Count)
system.mem_ctrls.readPktSize::4                     0                       # Read request sizes (log2) (Count)
system.mem_ctrls.readPktSize::5                     0                       # Read request sizes (log2) (Count)
system.mem_ctrls.readPktSize::6                127026                       # Read request sizes (log2) (Count)
system.mem_ctrls.writePktSize::0                    0                       # Write request sizes (log2) (Count)
system.mem_ctrls.writePktSize::1                    0                       # Write request sizes (log2) (Count)
system.mem_ctrls.writePktSize::2                    0                       # Write request sizes (log2) (Count)
system.mem_ctrls.writePktSize::3                    0                       # Write request sizes (log2) (Count)
system.mem_ctrls.writePktSize::4                    0                       # Write request sizes (log2) (Count)
system.mem_ctrls.writePktSize::5                    0                       # Write request sizes (log2) (Count)
system.mem_ctrls.writePktSize::6               122426                       # Write request sizes (log2) (Count)
system.mem_ctrls.rdQLenPdf::0                    9840                       # What read queue length does an incoming req see (Count)
system.mem_ctrls.rdQLenPdf::1                     164                       # What read queue length does an incoming req see (Count)
system.mem_ctrls.rdQLenPdf::2                      12                       # What read queue length does an incoming req see (Count)
system.mem_ctrls.rdQLenPdf::3                       0                       # What read queue length does an incoming req see (Count)
system.mem_ctrls.rdQLenPdf::4                       0                       # What read queue length does an incoming req see (Count)
system.mem_ctrls.rdQLenPdf::5                       0                       # What read queue length does an incoming req see (Count)
system.mem_ctrls.rdQLenPdf::6                       0                       # What read queue length does an incoming req see (Count)
system.mem_ctrls.rdQLenPdf::7                       0                       # What read queue length does an incoming req see (Count)
system.mem_ctrls.rdQLenPdf::8                       0                       # What read queue length does an incoming req see (Count)
system.mem_ctrls.rdQLenPdf::9                       0                       # What read queue length does an incoming req see (Count)
system.mem_ctrls.rdQLenPdf::10                      0                       # What read queue length does an incoming req see (Count)
system.mem_ctrls.rdQLenPdf::11                      0                       # What read queue length does an incoming req see (Count)
system.mem_ctrls.rdQLenPdf::12                      0                       # What read queue length does an incoming req see (Count)
system.mem_ctrls.rdQLenPdf::13                      0                       # What read queue length does an incoming req see (Count)
system.mem_ctrls.rdQLenPdf::14                      0                       # What read queue length does an incoming req see (Count)
system.mem_ctrls.rdQLenPdf::15                      0                       # What read queue length does an incoming req see (Count)
system.mem_ctrls.rdQLenPdf::16                      0                       # What read queue length does an incoming req see (Count)
system.mem_ctrls.rdQLenPdf::17                      0                       # What read queue length does an incoming req see (Count)
system.mem_ctrls.rdQLenPdf::18                      0                       # What read queue length does an incoming req see (Count)
system.mem_ctrls.rdQLenPdf::19                      0                       # What read queue length does an incoming req see (Count)
system.mem_ctrls.rdQLenPdf::20                      0                       # What read queue length does an incoming req see (Count)
system.mem_ctrls.rdQLenPdf::21                      0                       # What read queue length does an incoming req see (Count)
system.mem_ctrls.rdQLenPdf::22                      0                       # What read queue length does an incoming req see (Count)
system.mem_ctrls.rdQLenPdf::23                      0                       # What read queue length does an incoming req see (Count)
system.mem_ctrls.rdQLenPdf::24                      0                       # What read queue length does an incoming req see (Count)
system.mem_ctrls.rdQLenPdf::25                      0                       # What read queue length does an incoming req see (Count)
system.mem_ctrls.rdQLenPdf::26                      0                       # What read queue length does an incoming req see (Count)
system.mem_ctrls.rdQLenPdf::27                      0                       # What read queue length does an incoming req see (Count)
system.mem_ctrls.rdQLenPdf::28                      0                       # What read queue length does an incoming req see (Count)
system.mem_ctrls.rdQLenPdf::29                      0                       # What read queue length does an incoming req see (Count)
system.mem_ctrls.rdQLenPdf::30                      0                       # What read queue length does an incoming req see (Count)
system.mem_ctrls.rdQLenPdf::31                      0                       # What read queue length does an incoming req see (Count)
system.mem_ctrls.wrQLenPdf::0                       1                       # What write queue length does an incoming req see (Count)
system.mem_ctrls.wrQLenPdf::1                       1                       # What write queue length does an incoming req see (Count)
system.mem_ctrls.wrQLenPdf::2                       1                       # What write queue length does an incoming req see (Count)
system.mem_ctrls.wrQLenPdf::3                       1                       # What write queue length does an incoming req see (Count)
system.mem_ctrls.wrQLenPdf::4                       1                       # What write queue length does an incoming req see (Count)
system.mem_ctrls.wrQLenPdf::5                       1                       # What write queue length does an incoming req see (Count)
system.mem_ctrls.wrQLenPdf::6                       1                       # What write queue length does an incoming req see (Count)
system.mem_ctrls.wrQLenPdf::7                       1                       # What write queue length does an incoming req see (Count)
system.mem_ctrls.wrQLenPdf::8                       1                       # What write queue length does an incoming req see (Count)
system.mem_ctrls.wrQLenPdf::9                       1                       # What write queue length does an incoming req see (Count)
system.mem_ctrls.wrQLenPdf::10                      1                       # What write queue length does an incoming req see (Count)
system.mem_ctrls.wrQLenPdf::11                      1                       # What write queue length does an incoming req see (Count)
system.mem_ctrls.wrQLenPdf::12                      1                       # What write queue length does an incoming req see (Count)
system.mem_ctrls.wrQLenPdf::13                      1                       # What write queue length does an incoming req see (Count)
system.mem_ctrls.wrQLenPdf::14                      1                       # What write queue length does an incoming req see (Count)
system.mem_ctrls.wrQLenPdf::15                    393                       # What write queue length does an incoming req see (Count)
system.mem_ctrls.wrQLenPdf::16                    404                       # What write queue length does an incoming req see (Count)
system.mem_ctrls.wrQLenPdf::17                    522                       # What write queue length does an incoming req see (Count)
system.mem_ctrls.wrQLenPdf::18                    585                       # What write queue length does an incoming req see (Count)
system.mem_ctrls.wrQLenPdf::19                    548                       # What write queue length does an incoming req see (Count)
system.mem_ctrls.wrQLenPdf::20                    561                       # What write queue length does an incoming req see (Count)
system.mem_ctrls.wrQLenPdf::21                    588                       # What write queue length does an incoming req see (Count)
system.mem_ctrls.wrQLenPdf::22                    613                       # What write queue length does an incoming req see (Count)
system.mem_ctrls.wrQLenPdf::23                    554                       # What write queue length does an incoming req see (Count)
system.mem_ctrls.wrQLenPdf::24                    563                       # What write queue length does an incoming req see (Count)
system.mem_ctrls.wrQLenPdf::25                    613                       # What write queue length does an incoming req see (Count)
system.mem_ctrls.wrQLenPdf::26                    544                       # What write queue length does an incoming req see (Count)
system.mem_ctrls.wrQLenPdf::27                    542                       # What write queue length does an incoming req see (Count)
system.mem_ctrls.wrQLenPdf::28                    542                       # What write queue length does an incoming req see (Count)
system.mem_ctrls.wrQLenPdf::29                    544                       # What write queue length does an incoming req see (Count)
system.mem_ctrls.wrQLenPdf::30                    544                       # What write queue length does an incoming req see (Count)
system.mem_ctrls.wrQLenPdf::31                    543                       # What write queue length does an incoming req see (Count)
system.mem_ctrls.wrQLenPdf::32                    542                       # What write queue length does an incoming req see (Count)
system.mem_ctrls.wrQLenPdf::33                     13                       # What write queue length does an incoming req see (Count)
system.mem_ctrls.wrQLenPdf::34                      9                       # What write queue length does an incoming req see (Count)
system.mem_ctrls.wrQLenPdf::35                      0                       # What write queue length does an incoming req see (Count)
system.mem_ctrls.wrQLenPdf::36                      0                       # What write queue length does an incoming req see (Count)
system.mem_ctrls.wrQLenPdf::37                      0                       # What write queue length does an incoming req see (Count)
system.mem_ctrls.wrQLenPdf::38                      0                       # What write queue length does an incoming req see (Count)
system.mem_ctrls.wrQLenPdf::39                      0                       # What write queue length does an incoming req see (Count)
system.mem_ctrls.wrQLenPdf::40                      0                       # What write queue length does an incoming req see (Count)
system.mem_ctrls.wrQLenPdf::41                      0                       # What write queue length does an incoming req see (Count)
system.mem_ctrls.wrQLenPdf::42                      0                       # What write queue length does an incoming req see (Count)
system.mem_ctrls.wrQLenPdf::43                      0                       # What write queue length does an incoming req see (Count)
system.mem_ctrls.wrQLenPdf::44                      0                       # What write queue length does an incoming req see (Count)
system.mem_ctrls.wrQLenPdf::45                      0                       # What write queue length does an incoming req see (Count)
system.mem_ctrls.wrQLenPdf::46                      0                       # What write queue length does an incoming req see (Count)
system.mem_ctrls.wrQLenPdf::47                      0                       # What write queue length does an incoming req see (Count)
system.mem_ctrls.wrQLenPdf::48                      0                       # What write queue length does an incoming req see (Count)
system.mem_ctrls.wrQLenPdf::49                      0                       # What write queue length does an incoming req see (Count)
system.mem_ctrls.wrQLenPdf::50                      0                       # What write queue length does an incoming req see (Count)
system.mem_ctrls.wrQLenPdf::51                      0                       # What write queue length does an incoming req see (Count)
system.mem_ctrls.wrQLenPdf::52                      0                       # What write queue length does an incoming req see (Count)
system.mem_ctrls.wrQLenPdf::53                      0                       # What write queue length does an incoming req see (Count)
system.mem_ctrls.wrQLenPdf::54                      0                       # What write queue length does an incoming req see (Count)
system.mem_ctrls.wrQLenPdf::55                      0                       # What write queue length does an incoming req see (Count)
system.mem_ctrls.wrQLenPdf::56                      0                       # What write queue length does an incoming req see (Count)
system.mem_ctrls.wrQLenPdf::57                      0                       # What write queue length does an incoming req see (Count)
system.mem_ctrls.wrQLenPdf::58                      0                       # What write queue length does an incoming req see (Count)
system.mem_ctrls.wrQLenPdf::59                      0                       # What write queue length does an incoming req see (Count)
system.mem_ctrls.wrQLenPdf::60                      0                       # What write queue length does an incoming req see (Count)
system.mem_ctrls.wrQLenPdf::61                      0                       # What write queue length does an incoming req see (Count)
system.mem_ctrls.wrQLenPdf::62                      0                       # What write queue length does an incoming req see (Count)
system.mem_ctrls.wrQLenPdf::63                      0                       # What write queue length does an incoming req see (Count)
system.mem_ctrls.rdPerTurnAround::samples          542                       # Reads before turning the bus around for writes (Count)
system.mem_ctrls.rdPerTurnAround::mean      18.455720                       # Reads before turning the bus around for writes (Count)
system.mem_ctrls.rdPerTurnAround::gmean      8.939954                       # Reads before turning the bus around for writes (Count)
system.mem_ctrls.rdPerTurnAround::stdev     91.821216                       # Reads before turning the bus around for writes (Count)
system.mem_ctrls.rdPerTurnAround::0-63            534     98.52%     98.52% # Reads before turning the bus around for writes (Count)
system.mem_ctrls.rdPerTurnAround::64-127            2      0.37%     98.89% # Reads before turning the bus around for writes (Count)
system.mem_ctrls.rdPerTurnAround::128-191            1      0.18%     99.08% # Reads before turning the bus around for writes (Count)
system.mem_ctrls.rdPerTurnAround::192-255            1      0.18%     99.26% # Reads before turning the bus around for writes (Count)
system.mem_ctrls.rdPerTurnAround::512-575            2      0.37%     99.63% # Reads before turning the bus around for writes (Count)
system.mem_ctrls.rdPerTurnAround::1216-1279            1      0.18%     99.82% # Reads before turning the bus around for writes (Count)
system.mem_ctrls.rdPerTurnAround::1536-1599            1      0.18%    100.00% # Reads before turning the bus around for writes (Count)
system.mem_ctrls.rdPerTurnAround::total           542                       # Reads before turning the bus around for writes (Count)
system.mem_ctrls.wrPerTurnAround::samples          542                       # Writes before turning the bus around for reads (Count)
system.mem_ctrls.wrPerTurnAround::mean      17.998155                       # Writes before turning the bus around for reads (Count)
system.mem_ctrls.wrPerTurnAround::gmean     17.943243                       # Writes before turning the bus around for reads (Count)
system.mem_ctrls.wrPerTurnAround::stdev      1.399101                       # Writes before turning the bus around for reads (Count)
system.mem_ctrls.wrPerTurnAround::16              140     25.83%     25.83% # Writes before turning the bus around for reads (Count)
system.mem_ctrls.wrPerTurnAround::17                8      1.48%     27.31% # Writes before turning the bus around for reads (Count)
system.mem_ctrls.wrPerTurnAround::18              206     38.01%     65.31% # Writes before turning the bus around for reads (Count)
system.mem_ctrls.wrPerTurnAround::19               92     16.97%     82.29% # Writes before turning the bus around for reads (Count)
system.mem_ctrls.wrPerTurnAround::20               93     17.16%     99.45% # Writes before turning the bus around for reads (Count)
system.mem_ctrls.wrPerTurnAround::21                3      0.55%    100.00% # Writes before turning the bus around for reads (Count)
system.mem_ctrls.wrPerTurnAround::total           542                       # Writes before turning the bus around for reads (Count)
system.mem_ctrls.bytesReadWrQ                 7488640                       # Total number of bytes read from write queue (Byte)
system.mem_ctrls.bytesReadSys                 8129664                       # Total read bytes from the system interface side (Byte)
system.mem_ctrls.bytesWrittenSys              7835264                       # Total written bytes from the system interface side (Byte)
system.mem_ctrls.avgRdBWSys              142694094.76364222                       # Average system read bandwidth in Byte/s ((Byte/Second))
system.mem_ctrls.avgWrBWSys              137526705.12756178                       # Average system write bandwidth in Byte/s ((Byte/Second))
system.mem_ctrls.totGap                   56972671000                       # Total gap between requests (Tick)
system.mem_ctrls.avgGap                     228391.32                       # Average gap between requests ((Tick/Count))
system.mem_ctrls.requestorReadBytes::cpu.inst       249920                       # Per-requestor bytes read from memory (Byte)
system.mem_ctrls.requestorReadBytes::cpu.data       391104                       # Per-requestor bytes read from memory (Byte)
system.mem_ctrls.requestorWriteBytes::writebacks       624320                       # Per-requestor bytes write to memory (Byte)
system.mem_ctrls.requestorReadRate::cpu.inst 4386664.462803070433                       # Per-requestor bytes read from memory rate ((Byte/Second))
system.mem_ctrls.requestorReadRate::cpu.data 6864764.796975560486                       # Per-requestor bytes read from memory rate ((Byte/Second))
system.mem_ctrls.requestorWriteRate::writebacks 10958236.065209718421                       # Per-requestor bytes write to memory rate ((Byte/Second))
system.mem_ctrls.requestorReadAccesses::cpu.inst       120908                       # Per-requestor read serviced memory accesses (Count)
system.mem_ctrls.requestorReadAccesses::cpu.data         6118                       # Per-requestor read serviced memory accesses (Count)
system.mem_ctrls.requestorWriteAccesses::writebacks       122426                       # Per-requestor write serviced memory accesses (Count)
system.mem_ctrls.requestorReadTotalLat::cpu.inst    118014000                       # Per-requestor read total memory access latency (Tick)
system.mem_ctrls.requestorReadTotalLat::cpu.data    199329750                       # Per-requestor read total memory access latency (Tick)
system.mem_ctrls.requestorWriteTotalLat::writebacks 1561745942250                       # Per-requestor write total memory access latency (Tick)
system.mem_ctrls.requestorReadAvgLat::cpu.inst       976.06                       # Per-requestor read average memory access latency ((Tick/Count))
system.mem_ctrls.requestorReadAvgLat::cpu.data     32580.87                       # Per-requestor read average memory access latency ((Tick/Count))
system.mem_ctrls.requestorWriteAvgLat::writebacks  12756652.53                       # Per-requestor write average memory access latency ((Tick/Count))
system.mem_ctrls.dram.bytesRead::cpu.inst      7738048                       # Number of bytes read from this memory (Byte)
system.mem_ctrls.dram.bytesRead::cpu.data       391552                       # Number of bytes read from this memory (Byte)
system.mem_ctrls.dram.bytesRead::total        8129600                       # Number of bytes read from this memory (Byte)
system.mem_ctrls.dram.bytesInstRead::cpu.inst      7738048                       # Number of instructions bytes read from this memory (Byte)
system.mem_ctrls.dram.bytesInstRead::total      7738048                       # Number of instructions bytes read from this memory (Byte)
system.mem_ctrls.dram.bytesWritten::writebacks       129344                       # Number of bytes written to this memory (Byte)
system.mem_ctrls.dram.bytesWritten::total       129344                       # Number of bytes written to this memory (Byte)
system.mem_ctrls.dram.numReads::cpu.inst       120907                       # Number of read requests responded to by this memory (Count)
system.mem_ctrls.dram.numReads::cpu.data         6118                       # Number of read requests responded to by this memory (Count)
system.mem_ctrls.dram.numReads::total          127025                       # Number of read requests responded to by this memory (Count)
system.mem_ctrls.dram.numWrites::writebacks         2021                       # Number of write requests responded to by this memory (Count)
system.mem_ctrls.dram.numWrites::total           2021                       # Number of write requests responded to by this memory (Count)
system.mem_ctrls.dram.bwRead::cpu.inst      135820343                       # Total read bandwidth from this memory ((Byte/Second))
system.mem_ctrls.dram.bwRead::cpu.data        6872628                       # Total read bandwidth from this memory ((Byte/Second))
system.mem_ctrls.dram.bwRead::total         142692971                       # Total read bandwidth from this memory ((Byte/Second))
system.mem_ctrls.dram.bwInstRead::cpu.inst    135820343                       # Instruction read bandwidth from this memory ((Byte/Second))
system.mem_ctrls.dram.bwInstRead::total     135820343                       # Instruction read bandwidth from this memory ((Byte/Second))
system.mem_ctrls.dram.bwWrite::writebacks      2270281                       # Write bandwidth from this memory ((Byte/Second))
system.mem_ctrls.dram.bwWrite::total          2270281                       # Write bandwidth from this memory ((Byte/Second))
system.mem_ctrls.dram.bwTotal::writebacks      2270281                       # Total bandwidth to/from this memory ((Byte/Second))
system.mem_ctrls.dram.bwTotal::cpu.inst     135820343                       # Total bandwidth to/from this memory ((Byte/Second))
system.mem_ctrls.dram.bwTotal::cpu.data       6872628                       # Total bandwidth to/from this memory ((Byte/Second))
system.mem_ctrls.dram.bwTotal::total        144963253                       # Total bandwidth to/from this memory ((Byte/Second))
system.mem_ctrls.dram.readBursts                10016                       # Number of DRAM read bursts (Count)
system.mem_ctrls.dram.writeBursts                9755                       # Number of DRAM write bursts (Count)
system.mem_ctrls.dram.perBankRdBursts::0          620                       # Per bank write bursts (Count)
system.mem_ctrls.dram.perBankRdBursts::1          519                       # Per bank write bursts (Count)
system.mem_ctrls.dram.perBankRdBursts::2          486                       # Per bank write bursts (Count)
system.mem_ctrls.dram.perBankRdBursts::3          509                       # Per bank write bursts (Count)
system.mem_ctrls.dram.perBankRdBursts::4          454                       # Per bank write bursts (Count)
system.mem_ctrls.dram.perBankRdBursts::5          436                       # Per bank write bursts (Count)
system.mem_ctrls.dram.perBankRdBursts::6          427                       # Per bank write bursts (Count)
system.mem_ctrls.dram.perBankRdBursts::7          366                       # Per bank write bursts (Count)
system.mem_ctrls.dram.perBankRdBursts::8         1181                       # Per bank write bursts (Count)
system.mem_ctrls.dram.perBankRdBursts::9         1579                       # Per bank write bursts (Count)
system.mem_ctrls.dram.perBankRdBursts::10          513                       # Per bank write bursts (Count)
system.mem_ctrls.dram.perBankRdBursts::11          612                       # Per bank write bursts (Count)
system.mem_ctrls.dram.perBankRdBursts::12          365                       # Per bank write bursts (Count)
system.mem_ctrls.dram.perBankRdBursts::13          757                       # Per bank write bursts (Count)
system.mem_ctrls.dram.perBankRdBursts::14          692                       # Per bank write bursts (Count)
system.mem_ctrls.dram.perBankRdBursts::15          500                       # Per bank write bursts (Count)
system.mem_ctrls.dram.perBankWrBursts::0          474                       # Per bank write bursts (Count)
system.mem_ctrls.dram.perBankWrBursts::1          452                       # Per bank write bursts (Count)
system.mem_ctrls.dram.perBankWrBursts::2          183                       # Per bank write bursts (Count)
system.mem_ctrls.dram.perBankWrBursts::3          231                       # Per bank write bursts (Count)
system.mem_ctrls.dram.perBankWrBursts::4          167                       # Per bank write bursts (Count)
system.mem_ctrls.dram.perBankWrBursts::5          166                       # Per bank write bursts (Count)
system.mem_ctrls.dram.perBankWrBursts::6          153                       # Per bank write bursts (Count)
system.mem_ctrls.dram.perBankWrBursts::7          104                       # Per bank write bursts (Count)
system.mem_ctrls.dram.perBankWrBursts::8         1481                       # Per bank write bursts (Count)
system.mem_ctrls.dram.perBankWrBursts::9         2772                       # Per bank write bursts (Count)
system.mem_ctrls.dram.perBankWrBursts::10          223                       # Per bank write bursts (Count)
system.mem_ctrls.dram.perBankWrBursts::11          636                       # Per bank write bursts (Count)
system.mem_ctrls.dram.perBankWrBursts::12          642                       # Per bank write bursts (Count)
system.mem_ctrls.dram.perBankWrBursts::13         1199                       # Per bank write bursts (Count)
system.mem_ctrls.dram.perBankWrBursts::14          667                       # Per bank write bursts (Count)
system.mem_ctrls.dram.perBankWrBursts::15          205                       # Per bank write bursts (Count)
system.mem_ctrls.dram.totQLat               129543750                       # Total ticks spent queuing (Tick)
system.mem_ctrls.dram.totBusLat              50080000                       # Total ticks spent in databus transfers (Tick)
system.mem_ctrls.dram.totMemAccLat          317343750                       # Total ticks spent from burst creation until serviced by the DRAM (Tick)
system.mem_ctrls.dram.avgQLat                12933.68                       # Average queueing delay per DRAM burst ((Tick/Count))
system.mem_ctrls.dram.avgBusLat               5000.00                       # Average bus latency per DRAM burst ((Tick/Count))
system.mem_ctrls.dram.avgMemAccLat           31683.68                       # Average memory access latency per DRAM burst ((Tick/Count))
system.mem_ctrls.dram.readRowHits                4918                       # Number of row buffer hits during reads (Count)
system.mem_ctrls.dram.writeRowHits               7473                       # Number of row buffer hits during writes (Count)
system.mem_ctrls.dram.readRowHitRate            49.10                       # Row buffer hit rate for reads (Ratio)
system.mem_ctrls.dram.writeRowHitRate           76.61                       # Row buffer hit rate for writes (Ratio)
system.mem_ctrls.dram.bytesPerActivate::samples         7375                       # Bytes accessed per row activation (Byte)
system.mem_ctrls.dram.bytesPerActivate::mean   171.520000                       # Bytes accessed per row activation (Byte)
system.mem_ctrls.dram.bytesPerActivate::gmean   115.411947                       # Bytes accessed per row activation (Byte)
system.mem_ctrls.dram.bytesPerActivate::stdev   197.120122                       # Bytes accessed per row activation (Byte)
system.mem_ctrls.dram.bytesPerActivate::0-127         4101     55.61%     55.61% # Bytes accessed per row activation (Byte)
system.mem_ctrls.dram.bytesPerActivate::128-255         1666     22.59%     78.20% # Bytes accessed per row activation (Byte)
system.mem_ctrls.dram.bytesPerActivate::256-383          542      7.35%     85.55% # Bytes accessed per row activation (Byte)
system.mem_ctrls.dram.bytesPerActivate::384-511          478      6.48%     92.03% # Bytes accessed per row activation (Byte)
system.mem_ctrls.dram.bytesPerActivate::512-639          291      3.95%     95.97% # Bytes accessed per row activation (Byte)
system.mem_ctrls.dram.bytesPerActivate::640-767           73      0.99%     96.96% # Bytes accessed per row activation (Byte)
system.mem_ctrls.dram.bytesPerActivate::768-895           44      0.60%     97.56% # Bytes accessed per row activation (Byte)
system.mem_ctrls.dram.bytesPerActivate::896-1023           34      0.46%     98.02% # Bytes accessed per row activation (Byte)
system.mem_ctrls.dram.bytesPerActivate::1024-1151          146      1.98%    100.00% # Bytes accessed per row activation (Byte)
system.mem_ctrls.dram.bytesPerActivate::total         7375                       # Bytes accessed per row activation (Byte)
system.mem_ctrls.dram.bytesRead                641024                       # Total bytes read (Byte)
system.mem_ctrls.dram.bytesWritten             624320                       # Total bytes written (Byte)
system.mem_ctrls.dram.avgRdBW               11.251429                       # Average DRAM read bandwidth in MiBytes/s ((Byte/Second))
system.mem_ctrls.dram.avgWrBW               10.958236                       # Average DRAM write bandwidth in MiBytes/s ((Byte/Second))
system.mem_ctrls.dram.peakBW                 12800.00                       # Theoretical peak bandwidth in MiByte/s ((Byte/Second))
system.mem_ctrls.dram.busUtil                    0.17                       # Data bus utilization in percentage (Ratio)
system.mem_ctrls.dram.busUtilRead                0.09                       # Data bus utilization in percentage for reads (Ratio)
system.mem_ctrls.dram.busUtilWrite               0.09                       # Data bus utilization in percentage for writes (Ratio)
system.mem_ctrls.dram.pageHitRate               62.67                       # Row buffer hit rate, read and write combined (Ratio)
system.mem_ctrls.dram.power_state.pwrStateResidencyTicks::UNDEFINED  56972673000                       # Cumulative time (in ticks) in various power states (Tick)
system.mem_ctrls.dram.rank0.actEnergy        18956700                       # Energy for activate commands per rank (pJ) (Joule)
system.mem_ctrls.dram.rank0.preEnergy        10071930                       # Energy for precharge commands per rank (pJ) (Joule)
system.mem_ctrls.dram.rank0.readEnergy       27253380                       # Energy for read commands per rank (pJ) (Joule)
system.mem_ctrls.dram.rank0.writeEnergy      10074600                       # Energy for write commands per rank (pJ) (Joule)
system.mem_ctrls.dram.rank0.refreshEnergy 4497320880.000001                       # Energy for refresh commands per rank (pJ) (Joule)
system.mem_ctrls.dram.rank0.actBackEnergy   4655366130                       # Energy for active background per rank (pJ) (Joule)
system.mem_ctrls.dram.rank0.preBackEnergy  17957198400                       # Energy for precharge background per rank (pJ) (Joule)
system.mem_ctrls.dram.rank0.actPowerDownEnergy            0                       # Energy for active power-down per rank (pJ) (Joule)
system.mem_ctrls.dram.rank0.prePowerDownEnergy            0                       # Energy for precharge power-down per rank (pJ) (Joule)
system.mem_ctrls.dram.rank0.selfRefreshEnergy            0                       # Energy for self refresh per rank (pJ) (Joule)
system.mem_ctrls.dram.rank0.totalEnergy   27176242020                       # Total energy per rank (pJ) (Joule)
system.mem_ctrls.dram.rank0.averagePower   477.004862                       # Core power per rank (mW) (Watt)
system.mem_ctrls.dram.rank0.totalIdleTime            0                       # Total Idle time Per DRAM Rank (Tick)
system.mem_ctrls.dram.rank0.pwrStateTime::IDLE  46631687250                       # Time in different power states (Tick)
system.mem_ctrls.dram.rank0.pwrStateTime::REF   1902420000                       # Time in different power states (Tick)
system.mem_ctrls.dram.rank0.pwrStateTime::SREF            0                       # Time in different power states (Tick)
system.mem_ctrls.dram.rank0.pwrStateTime::PRE_PDN            0                       # Time in different power states (Tick)
system.mem_ctrls.dram.rank0.pwrStateTime::ACT   8438565750                       # Time in different power states (Tick)
system.mem_ctrls.dram.rank0.pwrStateTime::ACT_PDN            0                       # Time in different power states (Tick)
system.mem_ctrls.dram.rank1.actEnergy        33736500                       # Energy for activate commands per rank (pJ) (Joule)
system.mem_ctrls.dram.rank1.preEnergy        17916195                       # Energy for precharge commands per rank (pJ) (Joule)
system.mem_ctrls.dram.rank1.readEnergy       44260860                       # Energy for read commands per rank (pJ) (Joule)
system.mem_ctrls.dram.rank1.writeEnergy      40846500                       # Energy for write commands per rank (pJ) (Joule)
system.mem_ctrls.dram.rank1.refreshEnergy 4497320880.000001                       # Energy for refresh commands per rank (pJ) (Joule)
system.mem_ctrls.dram.rank1.actBackEnergy   5760853770                       # Energy for active background per rank (pJ) (Joule)
system.mem_ctrls.dram.rank1.preBackEnergy  17026261440                       # Energy for precharge background per rank (pJ) (Joule)
system.mem_ctrls.dram.rank1.actPowerDownEnergy            0                       # Energy for active power-down per rank (pJ) (Joule)
system.mem_ctrls.dram.rank1.prePowerDownEnergy            0                       # Energy for precharge power-down per rank (pJ) (Joule)
system.mem_ctrls.dram.rank1.selfRefreshEnergy            0                       # Energy for self refresh per rank (pJ) (Joule)
system.mem_ctrls.dram.rank1.totalEnergy   27421196145                       # Total energy per rank (pJ) (Joule)
system.mem_ctrls.dram.rank1.averagePower   481.304364                       # Core power per rank (mW) (Watt)
system.mem_ctrls.dram.rank1.totalIdleTime            0                       # Total Idle time Per DRAM Rank (Tick)
system.mem_ctrls.dram.rank1.pwrStateTime::IDLE  44203187500                       # Time in different power states (Tick)
system.mem_ctrls.dram.rank1.pwrStateTime::REF   1902420000                       # Time in different power states (Tick)
system.mem_ctrls.dram.rank1.pwrStateTime::SREF            0                       # Time in different power states (Tick)
system.mem_ctrls.dram.rank1.pwrStateTime::PRE_PDN            0                       # Time in different power states (Tick)
system.mem_ctrls.dram.rank1.pwrStateTime::ACT  10867065500                       # Time in different power states (Tick)
system.mem_ctrls.dram.rank1.pwrStateTime::ACT_PDN            0                       # Time in different power states (Tick)
system.mem_ctrls.power_state.pwrStateResidencyTicks::UNDEFINED  56972673000                       # Cumulative time (in ticks) in various power states (Tick)
system.membus.transDist::ReadResp              124824                       # Transaction distribution (Count)
system.membus.transDist::WritebackDirty          2021                       # Transaction distribution (Count)
system.membus.transDist::WritebackClean        120405                       # Transaction distribution (Count)
system.membus.transDist::CleanEvict                81                       # Transaction distribution (Count)
system.membus.transDist::ReadExReq               2201                       # Transaction distribution (Count)
system.membus.transDist::ReadExResp              2201                       # Transaction distribution (Count)
system.membus.transDist::ReadCleanReq          120908                       # Transaction distribution (Count)
system.membus.transDist::ReadSharedReq           3917                       # Transaction distribution (Count)
system.membus.pktCount_system.cpu.icache.mem_side_port::system.mem_ctrls.port       362220                       # Packet count per connected requestor and responder (Count)
system.membus.pktCount_system.cpu.icache.mem_side_port::total       362220                       # Packet count per connected requestor and responder (Count)
system.membus.pktCount_system.cpu.dcache.mem_side_port::system.mem_ctrls.port        14338                       # Packet count per connected requestor and responder (Count)
system.membus.pktCount_system.cpu.dcache.mem_side_port::total        14338                       # Packet count per connected requestor and responder (Count)
system.membus.pktCount::total                  376558                       # Packet count per connected requestor and responder (Count)
system.membus.pktSize_system.cpu.icache.mem_side_port::system.mem_ctrls.port     15443968                       # Cumulative packet size per connected requestor and responder (Byte)
system.membus.pktSize_system.cpu.icache.mem_side_port::total     15443968                       # Cumulative packet size per connected requestor and responder (Byte)
system.membus.pktSize_system.cpu.dcache.mem_side_port::system.mem_ctrls.port       520896                       # Cumulative packet size per connected requestor and responder (Byte)
system.membus.pktSize_system.cpu.dcache.mem_side_port::total       520896                       # Cumulative packet size per connected requestor and responder (Byte)
system.membus.pktSize::total                 15964864                       # Cumulative packet size per connected requestor and responder (Byte)
system.membus.snoops                                0                       # Total snoops (Count)
system.membus.snoopTraffic                          0                       # Total snoop traffic (Byte)
system.membus.snoopFanout::samples             127026                       # Request fanout histogram (Count)
system.membus.snoopFanout::mean                     0                       # Request fanout histogram (Count)
system.membus.snoopFanout::stdev                    0                       # Request fanout histogram (Count)
system.membus.snoopFanout::underflows               0      0.00%      0.00% # Request fanout histogram (Count)
system.membus.snoopFanout::0                   127026    100.00%    100.00% # Request fanout histogram (Count)
system.membus.snoopFanout::1                        0      0.00%    100.00% # Request fanout histogram (Count)
system.membus.snoopFanout::2                        0      0.00%    100.00% # Request fanout histogram (Count)
system.membus.snoopFanout::3                        0      0.00%    100.00% # Request fanout histogram (Count)
system.membus.snoopFanout::4                        0      0.00%    100.00% # Request fanout histogram (Count)
system.membus.snoopFanout::overflows                0      0.00%    100.00% # Request fanout histogram (Count)
system.membus.snoopFanout::min_value                0                       # Request fanout histogram (Count)
system.membus.snoopFanout::max_value                0                       # Request fanout histogram (Count)
system.membus.snoopFanout::total               127026                       # Request fanout histogram (Count)
system.membus.power_state.pwrStateResidencyTicks::UNDEFINED  56972673000                       # Cumulative time (in ticks) in various power states (Tick)
system.membus.reqLayer2.occupancy           764148500                       # Layer occupancy (ticks) (Tick)
system.membus.reqLayer2.utilization               0.0                       # Layer utilization (Ratio)
system.membus.respLayer1.occupancy          605802750                       # Layer occupancy (ticks) (Tick)
system.membus.respLayer1.utilization              0.0                       # Layer utilization (Ratio)
system.membus.respLayer2.occupancy           33133750                       # Layer occupancy (ticks) (Tick)
system.membus.respLayer2.utilization              0.0                       # Layer utilization (Ratio)
system.membus.snoop_filter.totRequests         249533                       # Total number of requests made to the snoop filter. (Count)
system.membus.snoop_filter.hitSingleRequests       122507                       # Number of requests hitting in the snoop filter with a single holder of the requested data. (Count)
system.membus.snoop_filter.hitMultiRequests            0                       # Number of requests hitting in the snoop filter with multiple (>1) holders of the requested data. (Count)
system.membus.snoop_filter.totSnoops                0                       # Total number of snoops made to the snoop filter. (Count)
system.membus.snoop_filter.hitSingleSnoops            0                       # Number of snoops hitting in the snoop filter with a single holder of the requested data. (Count)
system.membus.snoop_filter.hitMultiSnoops            0                       # Number of snoops hitting in the snoop filter with multiple (>1) holders of the requested data. (Count)
system.voltage_domain.voltage                       1                       # Voltage in Volts (Volt)
system.workload.inst.arm                            0                       # number of arm instructions executed (Count)
system.workload.inst.quiesce                        0                       # number of quiesce instructions executed (Count)
system.cpu.idleCycles                         5309524                       # Total number of cycles that the object has spent stopped (Unspecified)
system.cpu.tickCycles                       108635822                       # Number of cycles that the object actually ticked (Unspecified)

---------- End Simulation Statistics   ----------
