
---------- Begin Simulation Statistics ----------
simSeconds                                   0.011375                       # Number of seconds simulated (Second)
simTicks                                  11375428000                       # Number of ticks simulated (Tick)
finalTick                                 11375428000                       # Number of ticks from beginning of simulation (restored from checkpoints and never reset) (Tick)
simFreq                                  1000000000000                       # The number of ticks per simulated second ((Tick/Second))
hostSeconds                                    126.55                       # Real time elapsed on the host (Second)
hostTickRate                                 89887733                       # The number of ticks simulated per host second (ticks/s) ((Tick/Second))
hostMemory                                     665912                       # Number of bytes of host memory used (Byte)
simInsts                                     34932178                       # Number of instructions simulated (Count)
simOps                                       69036779                       # Number of ops (including micro ops) simulated (Count)
hostInstRate                                   276031                       # Simulator instruction rate (inst/s) ((Count/Second))
hostOpRate                                     545523                       # Simulator op (including micro ops) rate (op/s) ((Count/Second))
system.clk_domain.clock                          1000                       # Clock period in ticks (Tick)
system.cpu.numCycles                         22750857                       # Number of cpu cycles simulated (Cycle)
system.cpu.numWorkItemsStarted                      0                       # Number of work items this cpu started (Count)
system.cpu.numWorkItemsCompleted                    0                       # Number of work items this cpu completed (Count)
system.cpu.instsAdded                        73144145                       # Number of instructions added to the IQ (excludes non-spec) (Count)
system.cpu.nonSpecInstsAdded                       45                       # Number of non-speculative instructions added to the IQ (Count)
system.cpu.instsIssued                       71757994                       # Number of instructions issued (Count)
system.cpu.squashedInstsIssued                  54407                       # Number of squashed instructions issued (Count)
system.cpu.squashedInstsExamined              4107405                       # Number of squashed instructions iterated over during squash; mainly for profiling (Count)
system.cpu.squashedOperandsExamined           6055344                       # Number of squashed operands that are examined and possibly removed from graph (Count)
system.cpu.squashedNonSpecRemoved                  27                       # Number of squashed non-spec instructions that were removed (Count)
system.cpu.numIssuedDist::samples            22420880                       # Number of insts issued each cycle (Count)
system.cpu.numIssuedDist::mean               3.200499                       # Number of insts issued each cycle (Count)
system.cpu.numIssuedDist::stdev              2.437233                       # Number of insts issued each cycle (Count)
system.cpu.numIssuedDist::underflows                0      0.00%      0.00% # Number of insts issued each cycle (Count)
system.cpu.numIssuedDist::0                   4750373     21.19%     21.19% # Number of insts issued each cycle (Count)
system.cpu.numIssuedDist::1                   2026202      9.04%     30.22% # Number of insts issued each cycle (Count)
system.cpu.numIssuedDist::2                   2507779     11.19%     41.41% # Number of insts issued each cycle (Count)
system.cpu.numIssuedDist::3                   3280968     14.63%     56.04% # Number of insts issued each cycle (Count)
system.cpu.numIssuedDist::4                   2689243     11.99%     68.04% # Number of insts issued each cycle (Count)
system.cpu.numIssuedDist::5                   2046030      9.13%     77.16% # Number of insts issued each cycle (Count)
system.cpu.numIssuedDist::6                   2760945     12.31%     89.48% # Number of insts issued each cycle (Count)
system.cpu.numIssuedDist::7                   1554182      6.93%     96.41% # Number of insts issued each cycle (Count)
system.cpu.numIssuedDist::8                    805158      3.59%    100.00% # Number of insts issued each cycle (Count)
system.cpu.numIssuedDist::overflows                 0      0.00%    100.00% # Number of insts issued each cycle (Count)
system.cpu.numIssuedDist::min_value                 0                       # Number of insts issued each cycle (Count)
system.cpu.numIssuedDist::max_value                 8                       # Number of insts issued each cycle (Count)
system.cpu.numIssuedDist::total              22420880                       # Number of insts issued each cycle (Count)
system.cpu.statFuBusy::No_OpClass                   0      0.00%      0.00% # attempts to use FU when none available (Count)
system.cpu.statFuBusy::IntAlu                 1670111     89.04%     89.04% # attempts to use FU when none available (Count)
system.cpu.statFuBusy::IntMult                      0      0.00%     89.04% # attempts to use FU when none available (Count)
system.cpu.statFuBusy::IntDiv                       0      0.00%     89.04% # attempts to use FU when none available (Count)
system.cpu.statFuBusy::FloatAdd                     0      0.00%     89.04% # attempts to use FU when none available (Count)
system.cpu.statFuBusy::FloatCmp                     0      0.00%     89.04% # attempts to use FU when none available (Count)
system.cpu.statFuBusy::FloatCvt                     0      0.00%     89.04% # attempts to use FU when none available (Count)
system.cpu.statFuBusy::FloatMult                    0      0.00%     89.04% # attempts to use FU when none available (Count)
system.cpu.statFuBusy::FloatMultAcc                 0      0.00%     89.04% # attempts to use FU when none available (Count)
system.cpu.statFuBusy::FloatDiv                     0      0.00%     89.04% # attempts to use FU when none available (Count)
system.cpu.statFuBusy::FloatMisc                    0      0.00%     89.04% # attempts to use FU when none available (Count)
system.cpu.statFuBusy::FloatSqrt                    0      0.00%     89.04% # attempts to use FU when none available (Count)
system.cpu.statFuBusy::SimdAdd                      0      0.00%     89.04% # attempts to use FU when none available (Count)
system.cpu.statFuBusy::SimdAddAcc                   0      0.00%     89.04% # attempts to use FU when none available (Count)
system.cpu.statFuBusy::SimdAlu                  28776      1.53%     90.58% # attempts to use FU when none available (Count)
system.cpu.statFuBusy::SimdCmp                      0      0.00%     90.58% # attempts to use FU when none available (Count)
system.cpu.statFuBusy::SimdCvt                    122      0.01%     90.59% # attempts to use FU when none available (Count)
system.cpu.statFuBusy::SimdMisc                  8909      0.47%     91.06% # attempts to use FU when none available (Count)
system.cpu.statFuBusy::SimdMult                     0      0.00%     91.06% # attempts to use FU when none available (Count)
system.cpu.statFuBusy::SimdMultAcc                  0      0.00%     91.06% # attempts to use FU when none available (Count)
system.cpu.statFuBusy::SimdShift                    0      0.00%     91.06% # attempts to use FU when none available (Count)
system.cpu.statFuBusy::SimdShiftAcc                 0      0.00%     91.06% # attempts to use FU when none available (Count)
system.cpu.statFuBusy::SimdDiv                      0      0.00%     91.06% # attempts to use FU when none available (Count)
system.cpu.statFuBusy::SimdSqrt                     0      0.00%     91.06% # attempts to use FU when none available (Count)
system.cpu.statFuBusy::SimdFloatAdd              2846      0.15%     91.21% # attempts to use FU when none available (Count)
system.cpu.statFuBusy::SimdFloatAlu                 0      0.00%     91.21% # attempts to use FU when none available (Count)
system.cpu.statFuBusy::SimdFloatCmp                 0      0.00%     91.21% # attempts to use FU when none available (Count)
system.cpu.statFuBusy::SimdFloatCvt                 0      0.00%     91.21% # attempts to use FU when none available (Count)
system.cpu.statFuBusy::SimdFloatDiv                 0      0.00%     91.21% # attempts to use FU when none available (Count)
system.cpu.statFuBusy::SimdFloatMisc                0      0.00%     91.21% # attempts to use FU when none available (Count)
system.cpu.statFuBusy::SimdFloatMult            21232      1.13%     92.34% # attempts to use FU when none available (Count)
system.cpu.statFuBusy::SimdFloatMultAcc             0      0.00%     92.34% # attempts to use FU when none available (Count)
system.cpu.statFuBusy::SimdFloatSqrt                0      0.00%     92.34% # attempts to use FU when none available (Count)
system.cpu.statFuBusy::SimdReduceAdd                0      0.00%     92.34% # attempts to use FU when none available (Count)
system.cpu.statFuBusy::SimdReduceAlu                0      0.00%     92.34% # attempts to use FU when none available (Count)
system.cpu.statFuBusy::SimdReduceCmp                0      0.00%     92.34% # attempts to use FU when none available (Count)
system.cpu.statFuBusy::SimdFloatReduceAdd            0      0.00%     92.34% # attempts to use FU when none available (Count)
system.cpu.statFuBusy::SimdFloatReduceCmp            0      0.00%     92.34% # attempts to use FU when none available (Count)
system.cpu.statFuBusy::SimdAes                      0      0.00%     92.34% # attempts to use FU when none available (Count)
system.cpu.statFuBusy::SimdAesMix                   0      0.00%     92.34% # attempts to use FU when none available (Count)
system.cpu.statFuBusy::SimdSha1Hash                 0      0.00%     92.34% # attempts to use FU when none available (Count)
system.cpu.statFuBusy::SimdSha1Hash2                0      0.00%     92.34% # attempts to use FU when none available (Count)
system.cpu.statFuBusy::SimdSha256Hash               0      0.00%     92.34% # attempts to use FU when none available (Count)
system.cpu.statFuBusy::SimdSha256Hash2              0      0.00%     92.34% # attempts to use FU when none available (Count)
system.cpu.statFuBusy::SimdShaSigma2                0      0.00%     92.34% # attempts to use FU when none available (Count)
system.cpu.statFuBusy::SimdShaSigma3                0      0.00%     92.34% # attempts to use FU when none available (Count)
system.cpu.statFuBusy::SimdPredAlu                  0      0.00%     92.34% # attempts to use FU when none available (Count)
system.cpu.statFuBusy::MemRead                 103722      5.53%     97.87% # attempts to use FU when none available (Count)
system.cpu.statFuBusy::MemWrite                  2709      0.14%     98.02% # attempts to use FU when none available (Count)
system.cpu.statFuBusy::FloatMemRead             20586      1.10%     99.12% # attempts to use FU when none available (Count)
system.cpu.statFuBusy::FloatMemWrite            16580      0.88%    100.00% # attempts to use FU when none available (Count)
system.cpu.statFuBusy::IprAccess                    0      0.00%    100.00% # attempts to use FU when none available (Count)
system.cpu.statFuBusy::InstPrefetch                 0      0.00%    100.00% # attempts to use FU when none available (Count)
system.cpu.statIssuedInstType_0::No_OpClass       866806      1.21%      1.21% # Number of instructions issued per FU type, per thread (Count)
system.cpu.statIssuedInstType_0::IntAlu      55417402     77.23%     78.44% # Number of instructions issued per FU type, per thread (Count)
system.cpu.statIssuedInstType_0::IntMult        89549      0.12%     78.56% # Number of instructions issued per FU type, per thread (Count)
system.cpu.statIssuedInstType_0::IntDiv        910403      1.27%     79.83% # Number of instructions issued per FU type, per thread (Count)
system.cpu.statIssuedInstType_0::FloatAdd       367003      0.51%     80.34% # Number of instructions issued per FU type, per thread (Count)
system.cpu.statIssuedInstType_0::FloatCmp            0      0.00%     80.34% # Number of instructions issued per FU type, per thread (Count)
system.cpu.statIssuedInstType_0::FloatCvt            0      0.00%     80.34% # Number of instructions issued per FU type, per thread (Count)
system.cpu.statIssuedInstType_0::FloatMult            0      0.00%     80.34% # Number of instructions issued per FU type, per thread (Count)
system.cpu.statIssuedInstType_0::FloatMultAcc            0      0.00%     80.34% # Number of instructions issued per FU type, per thread (Count)
system.cpu.statIssuedInstType_0::FloatDiv            0      0.00%     80.34% # Number of instructions issued per FU type, per thread (Count)
system.cpu.statIssuedInstType_0::FloatMisc            0      0.00%     80.34% # Number of instructions issued per FU type, per thread (Count)
system.cpu.statIssuedInstType_0::FloatSqrt            0      0.00%     80.34% # Number of instructions issued per FU type, per thread (Count)
system.cpu.statIssuedInstType_0::SimdAdd            0      0.00%     80.34% # Number of instructions issued per FU type, per thread (Count)
system.cpu.statIssuedInstType_0::SimdAddAcc            0      0.00%     80.34% # Number of instructions issued per FU type, per thread (Count)
system.cpu.statIssuedInstType_0::SimdAlu       279313      0.39%     80.73% # Number of instructions issued per FU type, per thread (Count)
system.cpu.statIssuedInstType_0::SimdCmp          338      0.00%     80.73% # Number of instructions issued per FU type, per thread (Count)
system.cpu.statIssuedInstType_0::SimdCvt       164768      0.23%     80.96% # Number of instructions issued per FU type, per thread (Count)
system.cpu.statIssuedInstType_0::SimdMisc       242670      0.34%     81.30% # Number of instructions issued per FU type, per thread (Count)
system.cpu.statIssuedInstType_0::SimdMult            0      0.00%     81.30% # Number of instructions issued per FU type, per thread (Count)
system.cpu.statIssuedInstType_0::SimdMultAcc            0      0.00%     81.30% # Number of instructions issued per FU type, per thread (Count)
system.cpu.statIssuedInstType_0::SimdShift            0      0.00%     81.30% # Number of instructions issued per FU type, per thread (Count)
system.cpu.statIssuedInstType_0::SimdShiftAcc            0      0.00%     81.30% # Number of instructions issued per FU type, per thread (Count)
system.cpu.statIssuedInstType_0::SimdDiv            0      0.00%     81.30% # Number of instructions issued per FU type, per thread (Count)
system.cpu.statIssuedInstType_0::SimdSqrt            0      0.00%     81.30% # Number of instructions issued per FU type, per thread (Count)
system.cpu.statIssuedInstType_0::SimdFloatAdd       278528      0.39%     81.69% # Number of instructions issued per FU type, per thread (Count)
system.cpu.statIssuedInstType_0::SimdFloatAlu            0      0.00%     81.69% # Number of instructions issued per FU type, per thread (Count)
system.cpu.statIssuedInstType_0::SimdFloatCmp            0      0.00%     81.69% # Number of instructions issued per FU type, per thread (Count)
system.cpu.statIssuedInstType_0::SimdFloatCvt        16384      0.02%     81.71% # Number of instructions issued per FU type, per thread (Count)
system.cpu.statIssuedInstType_0::SimdFloatDiv            0      0.00%     81.71% # Number of instructions issued per FU type, per thread (Count)
system.cpu.statIssuedInstType_0::SimdFloatMisc            0      0.00%     81.71% # Number of instructions issued per FU type, per thread (Count)
system.cpu.statIssuedInstType_0::SimdFloatMult       262144      0.37%     82.07% # Number of instructions issued per FU type, per thread (Count)
system.cpu.statIssuedInstType_0::SimdFloatMultAcc            0      0.00%     82.07% # Number of instructions issued per FU type, per thread (Count)
system.cpu.statIssuedInstType_0::SimdFloatSqrt            0      0.00%     82.07% # Number of instructions issued per FU type, per thread (Count)
system.cpu.statIssuedInstType_0::SimdReduceAdd            0      0.00%     82.07% # Number of instructions issued per FU type, per thread (Count)
system.cpu.statIssuedInstType_0::SimdReduceAlu            0      0.00%     82.07% # Number of instructions issued per FU type, per thread (Count)
system.cpu.statIssuedInstType_0::SimdReduceCmp            0      0.00%     82.07% # Number of instructions issued per FU type, per thread (Count)
system.cpu.statIssuedInstType_0::SimdFloatReduceAdd            0      0.00%     82.07% # Number of instructions issued per FU type, per thread (Count)
system.cpu.statIssuedInstType_0::SimdFloatReduceCmp            0      0.00%     82.07% # Number of instructions issued per FU type, per thread (Count)
system.cpu.statIssuedInstType_0::SimdAes            0      0.00%     82.07% # Number of instructions issued per FU type, per thread (Count)
system.cpu.statIssuedInstType_0::SimdAesMix            0      0.00%     82.07% # Number of instructions issued per FU type, per thread (Count)
system.cpu.statIssuedInstType_0::SimdSha1Hash            0      0.00%     82.07% # Number of instructions issued per FU type, per thread (Count)
system.cpu.statIssuedInstType_0::SimdSha1Hash2            0      0.00%     82.07% # Number of instructions issued per FU type, per thread (Count)
system.cpu.statIssuedInstType_0::SimdSha256Hash            0      0.00%     82.07% # Number of instructions issued per FU type, per thread (Count)
system.cpu.statIssuedInstType_0::SimdSha256Hash2            0      0.00%     82.07% # Number of instructions issued per FU type, per thread (Count)
system.cpu.statIssuedInstType_0::SimdShaSigma2            0      0.00%     82.07% # Number of instructions issued per FU type, per thread (Count)
system.cpu.statIssuedInstType_0::SimdShaSigma3            0      0.00%     82.07% # Number of instructions issued per FU type, per thread (Count)
system.cpu.statIssuedInstType_0::SimdPredAlu            0      0.00%     82.07% # Number of instructions issued per FU type, per thread (Count)
system.cpu.statIssuedInstType_0::MemRead      7038686      9.81%     91.88% # Number of instructions issued per FU type, per thread (Count)
system.cpu.statIssuedInstType_0::MemWrite      4733010      6.60%     98.48% # Number of instructions issued per FU type, per thread (Count)
system.cpu.statIssuedInstType_0::FloatMemRead       610348      0.85%     99.33% # Number of instructions issued per FU type, per thread (Count)
system.cpu.statIssuedInstType_0::FloatMemWrite       480642      0.67%    100.00% # Number of instructions issued per FU type, per thread (Count)
system.cpu.statIssuedInstType_0::IprAccess            0      0.00%    100.00% # Number of instructions issued per FU type, per thread (Count)
system.cpu.statIssuedInstType_0::InstPrefetch            0      0.00%    100.00% # Number of instructions issued per FU type, per thread (Count)
system.cpu.statIssuedInstType_0::total       71757994                       # Number of instructions issued per FU type, per thread (Count)
system.cpu.issueRate                         3.154079                       # Inst issue rate ((Count/Cycle))
system.cpu.fuBusy                             1875593                       # FU busy when requested (Count)
system.cpu.fuBusyRate                        0.026138                       # FU busy rate (busy events/executed inst) ((Count/Count))
system.cpu.intInstQueueReads                162281212                       # Number of integer instruction queue reads (Count)
system.cpu.intInstQueueWrites                74478007                       # Number of integer instruction queue writes (Count)
system.cpu.intInstQueueWakeupAccesses        68580726                       # Number of integer instruction queue wakeup accesses (Count)
system.cpu.fpInstQueueReads                   5585656                       # Number of floating instruction queue reads (Count)
system.cpu.fpInstQueueWrites                  2774062                       # Number of floating instruction queue writes (Count)
system.cpu.fpInstQueueWakeupAccesses          2724518                       # Number of floating instruction queue wakeup accesses (Count)
system.cpu.vecInstQueueReads                        0                       # Number of vector instruction queue reads (Count)
system.cpu.vecInstQueueWrites                       0                       # Number of vector instruction queue writes (Count)
system.cpu.vecInstQueueWakeupAccesses               0                       # Number of vector instruction queue wakeup accesses (Count)
system.cpu.intAluAccesses                    69924442                       # Number of integer alu accesses (Count)
system.cpu.fpAluAccesses                      2842339                       # Number of floating point alu accesses (Count)
system.cpu.vecAluAccesses                           0                       # Number of vector alu accesses (Count)
system.cpu.numInsts                          71395981                       # Number of executed instructions (Count)
system.cpu.numLoadInsts                       7603839                       # Number of load instructions executed (Count)
system.cpu.numSquashedInsts                    362013                       # Number of squashed instructions skipped in execute (Count)
system.cpu.numSwp                                   0                       # Number of swp insts executed (Count)
system.cpu.numNop                                   0                       # Number of nop insts executed (Count)
system.cpu.numRefs                           12780062                       # Number of memory reference insts executed (Count)
system.cpu.numBranches                        8417009                       # Number of branches executed (Count)
system.cpu.numStoreInsts                      5176223                       # Number of stores executed (Count)
system.cpu.numRate                           3.138167                       # Inst execution rate ((Count/Cycle))
system.cpu.timesIdled                           13049                       # Number of times that the entire CPU went into an idle state and unscheduled itself (Count)
system.cpu.idleCycles                          329977                       # Total number of cycles that the CPU has spent unscheduled due to idling (Cycle)
system.cpu.committedInsts                    34932178                       # Number of Instructions Simulated (Count)
system.cpu.committedOps                      69036779                       # Number of Ops (including micro ops) Simulated (Count)
system.cpu.cpi                               0.651287                       # CPI: Cycles Per Instruction ((Cycle/Count))
system.cpu.totalCpi                          0.651287                       # CPI: Total CPI of All Threads ((Cycle/Count))
system.cpu.ipc                               1.535423                       # IPC: Instructions Per Cycle ((Count/Cycle))
system.cpu.totalIpc                          1.535423                       # IPC: Total IPC of All Threads ((Count/Cycle))
system.cpu.intRegfileReads                  108685192                       # Number of integer regfile reads (Count)
system.cpu.intRegfileWrites                  56691955                       # Number of integer regfile writes (Count)
system.cpu.fpRegfileReads                     3579921                       # Number of floating regfile reads (Count)
system.cpu.fpRegfileWrites                    2069467                       # Number of floating regfile writes (Count)
system.cpu.ccRegfileReads                    43017635                       # number of cc regfile reads (Count)
system.cpu.ccRegfileWrites                   22787763                       # number of cc regfile writes (Count)
system.cpu.miscRegfileReads                  27237541                       # number of misc regfile reads (Count)
system.cpu.MemDepUnit__0.insertedLoads        7672614                       # Number of loads inserted to the mem dependence unit. (Count)
system.cpu.MemDepUnit__0.insertedStores       5306222                       # Number of stores inserted to the mem dependence unit. (Count)
system.cpu.MemDepUnit__0.conflictingLoads       357159                       # Number of conflicting loads. (Count)
system.cpu.MemDepUnit__0.conflictingStores        90192                       # Number of conflicting stores. (Count)
system.cpu.MemDepUnit__1.insertedLoads              0                       # Number of loads inserted to the mem dependence unit. (Count)
system.cpu.MemDepUnit__1.insertedStores             0                       # Number of stores inserted to the mem dependence unit. (Count)
system.cpu.MemDepUnit__1.conflictingLoads            0                       # Number of conflicting loads. (Count)
system.cpu.MemDepUnit__1.conflictingStores            0                       # Number of conflicting stores. (Count)
system.cpu.MemDepUnit__2.insertedLoads              0                       # Number of loads inserted to the mem dependence unit. (Count)
system.cpu.MemDepUnit__2.insertedStores             0                       # Number of stores inserted to the mem dependence unit. (Count)
system.cpu.MemDepUnit__2.conflictingLoads            0                       # Number of conflicting loads. (Count)
system.cpu.MemDepUnit__2.conflictingStores            0                       # Number of conflicting stores. (Count)
system.cpu.MemDepUnit__3.insertedLoads              0                       # Number of loads inserted to the mem dependence unit. (Count)
system.cpu.MemDepUnit__3.insertedStores             0                       # Number of stores inserted to the mem dependence unit. (Count)
system.cpu.MemDepUnit__3.conflictingLoads            0                       # Number of conflicting loads. (Count)
system.cpu.MemDepUnit__3.conflictingStores            0                       # Number of conflicting stores. (Count)
system.cpu.branchPred.lookups                 9283706                       # Number of BP lookups (Count)
system.cpu.branchPred.condPredicted           7451665                       # Number of conditional branches predicted (Count)
system.cpu.branchPred.condIncorrect            146641                       # Number of conditional branches incorrect (Count)
system.cpu.branchPred.BTBLookups              5192333                       # Number of BTB lookups (Count)
system.cpu.branchPred.BTBHits                 5146217                       # Number of BTB hits (Count)
system.cpu.branchPred.BTBHitRatio            0.991118                       # BTB Hit Ratio (Ratio)
system.cpu.branchPred.RASUsed                  534167                       # Number of times the RAS was used to get a target. (Count)
system.cpu.branchPred.RASIncorrect                  2                       # Number of incorrect RAS predictions. (Count)
system.cpu.branchPred.indirectLookups          109694                       # Number of indirect predictor lookups. (Count)
system.cpu.branchPred.indirectHits             108772                       # Number of indirect target hits. (Count)
system.cpu.branchPred.indirectMisses              922                       # Number of indirect misses. (Count)
system.cpu.branchPred.indirectMispredicted          185                       # Number of mispredicted indirect branches. (Count)
system.cpu.commit.commitSquashedInsts         3876943                       # The number of squashed insts skipped by commit (Count)
system.cpu.commit.commitNonSpecStalls              18                       # The number of times commit has been forced to stall to communicate backwards (Count)
system.cpu.commit.branchMispredicts            138105                       # The number of times a branch was mispredicted (Count)
system.cpu.commit.numCommittedDist::samples     21855529                       # Number of insts commited each cycle (Count)
system.cpu.commit.numCommittedDist::mean     3.158779                       # Number of insts commited each cycle (Count)
system.cpu.commit.numCommittedDist::stdev     3.016116                       # Number of insts commited each cycle (Count)
system.cpu.commit.numCommittedDist::underflows            0      0.00%      0.00% # Number of insts commited each cycle (Count)
system.cpu.commit.numCommittedDist::0         5918122     27.08%     27.08% # Number of insts commited each cycle (Count)
system.cpu.commit.numCommittedDist::1         2926905     13.39%     40.47% # Number of insts commited each cycle (Count)
system.cpu.commit.numCommittedDist::2         2266960     10.37%     50.84% # Number of insts commited each cycle (Count)
system.cpu.commit.numCommittedDist::3         2966350     13.57%     64.42% # Number of insts commited each cycle (Count)
system.cpu.commit.numCommittedDist::4         1589243      7.27%     71.69% # Number of insts commited each cycle (Count)
system.cpu.commit.numCommittedDist::5          624315      2.86%     74.54% # Number of insts commited each cycle (Count)
system.cpu.commit.numCommittedDist::6          375561      1.72%     76.26% # Number of insts commited each cycle (Count)
system.cpu.commit.numCommittedDist::7          559593      2.56%     78.82% # Number of insts commited each cycle (Count)
system.cpu.commit.numCommittedDist::8         4628480     21.18%    100.00% # Number of insts commited each cycle (Count)
system.cpu.commit.numCommittedDist::overflows            0      0.00%    100.00% # Number of insts commited each cycle (Count)
system.cpu.commit.numCommittedDist::min_value            0                       # Number of insts commited each cycle (Count)
system.cpu.commit.numCommittedDist::max_value            8                       # Number of insts commited each cycle (Count)
system.cpu.commit.numCommittedDist::total     21855529                       # Number of insts commited each cycle (Count)
system.cpu.commit.instsCommitted             34932178                       # Number of instructions committed (Count)
system.cpu.commit.opsCommitted               69036779                       # Number of ops (including micro ops) committed (Count)
system.cpu.commit.memRefs                    12465518                       # Number of memory references committed (Count)
system.cpu.commit.loads                       7353093                       # Number of loads committed (Count)
system.cpu.commit.amos                              0                       # Number of atomic instructions committed (Count)
system.cpu.commit.membars                          12                       # Number of memory barriers committed (Count)
system.cpu.commit.branches                    8157686                       # Number of branches committed (Count)
system.cpu.commit.vectorInstructions                0                       # Number of committed Vector instructions. (Count)
system.cpu.commit.floating                    2719796                       # Number of committed floating point instructions. (Count)
system.cpu.commit.integer                    65681969                       # Number of committed integer instructions. (Count)
system.cpu.commit.functionCalls                491730                       # Number of function calls committed. (Count)
system.cpu.commit.committedInstType_0::No_OpClass       850896      1.23%      1.23% # Class of committed instruction (Count)
system.cpu.commit.committedInstType_0::IntAlu     53144293     76.98%     78.21% # Class of committed instruction (Count)
system.cpu.commit.committedInstType_0::IntMult        89549      0.13%     78.34% # Class of committed instruction (Count)
system.cpu.commit.committedInstType_0::IntDiv       882475      1.28%     79.62% # Class of committed instruction (Count)
system.cpu.commit.committedInstType_0::FloatAdd       360603      0.52%     80.14% # Class of committed instruction (Count)
system.cpu.commit.committedInstType_0::FloatCmp            0      0.00%     80.14% # Class of committed instruction (Count)
system.cpu.commit.committedInstType_0::FloatCvt            0      0.00%     80.14% # Class of committed instruction (Count)
system.cpu.commit.committedInstType_0::FloatMult            0      0.00%     80.14% # Class of committed instruction (Count)
system.cpu.commit.committedInstType_0::FloatMultAcc            0      0.00%     80.14% # Class of committed instruction (Count)
system.cpu.commit.committedInstType_0::FloatDiv            0      0.00%     80.14% # Class of committed instruction (Count)
system.cpu.commit.committedInstType_0::FloatMisc            0      0.00%     80.14% # Class of committed instruction (Count)
system.cpu.commit.committedInstType_0::FloatSqrt            0      0.00%     80.14% # Class of committed instruction (Count)
system.cpu.commit.committedInstType_0::SimdAdd            0      0.00%     80.14% # Class of committed instruction (Count)
system.cpu.commit.committedInstType_0::SimdAddAcc            0      0.00%     80.14% # Class of committed instruction (Count)
system.cpu.commit.committedInstType_0::SimdAlu       279104      0.40%     80.55% # Class of committed instruction (Count)
system.cpu.commit.committedInstType_0::SimdCmp          336      0.00%     80.55% # Class of committed instruction (Count)
system.cpu.commit.committedInstType_0::SimdCvt       164462      0.24%     80.79% # Class of committed instruction (Count)
system.cpu.commit.committedInstType_0::SimdMisc       242487      0.35%     81.14% # Class of committed instruction (Count)
system.cpu.commit.committedInstType_0::SimdMult            0      0.00%     81.14% # Class of committed instruction (Count)
system.cpu.commit.committedInstType_0::SimdMultAcc            0      0.00%     81.14% # Class of committed instruction (Count)
system.cpu.commit.committedInstType_0::SimdShift            0      0.00%     81.14% # Class of committed instruction (Count)
system.cpu.commit.committedInstType_0::SimdShiftAcc            0      0.00%     81.14% # Class of committed instruction (Count)
system.cpu.commit.committedInstType_0::SimdDiv            0      0.00%     81.14% # Class of committed instruction (Count)
system.cpu.commit.committedInstType_0::SimdSqrt            0      0.00%     81.14% # Class of committed instruction (Count)
system.cpu.commit.committedInstType_0::SimdFloatAdd       278528      0.40%     81.54% # Class of committed instruction (Count)
system.cpu.commit.committedInstType_0::SimdFloatAlu            0      0.00%     81.54% # Class of committed instruction (Count)
system.cpu.commit.committedInstType_0::SimdFloatCmp            0      0.00%     81.54% # Class of committed instruction (Count)
system.cpu.commit.committedInstType_0::SimdFloatCvt        16384      0.02%     81.56% # Class of committed instruction (Count)
system.cpu.commit.committedInstType_0::SimdFloatDiv            0      0.00%     81.56% # Class of committed instruction (Count)
system.cpu.commit.committedInstType_0::SimdFloatMisc            0      0.00%     81.56% # Class of committed instruction (Count)
system.cpu.commit.committedInstType_0::SimdFloatMult       262144      0.38%     81.94% # Class of committed instruction (Count)
system.cpu.commit.committedInstType_0::SimdFloatMultAcc            0      0.00%     81.94% # Class of committed instruction (Count)
system.cpu.commit.committedInstType_0::SimdFloatSqrt            0      0.00%     81.94% # Class of committed instruction (Count)
system.cpu.commit.committedInstType_0::SimdReduceAdd            0      0.00%     81.94% # Class of committed instruction (Count)
system.cpu.commit.committedInstType_0::SimdReduceAlu            0      0.00%     81.94% # Class of committed instruction (Count)
system.cpu.commit.committedInstType_0::SimdReduceCmp            0      0.00%     81.94% # Class of committed instruction (Count)
system.cpu.commit.committedInstType_0::SimdFloatReduceAdd            0      0.00%     81.94% # Class of committed instruction (Count)
system.cpu.commit.committedInstType_0::SimdFloatReduceCmp            0      0.00%     81.94% # Class of committed instruction (Count)
system.cpu.commit.committedInstType_0::SimdAes            0      0.00%     81.94% # Class of committed instruction (Count)
system.cpu.commit.committedInstType_0::SimdAesMix            0      0.00%     81.94% # Class of committed instruction (Count)
system.cpu.commit.committedInstType_0::SimdSha1Hash            0      0.00%     81.94% # Class of committed instruction (Count)
system.cpu.commit.committedInstType_0::SimdSha1Hash2            0      0.00%     81.94% # Class of committed instruction (Count)
system.cpu.commit.committedInstType_0::SimdSha256Hash            0      0.00%     81.94% # Class of committed instruction (Count)
system.cpu.commit.committedInstType_0::SimdSha256Hash2            0      0.00%     81.94% # Class of committed instruction (Count)
system.cpu.commit.committedInstType_0::SimdShaSigma2            0      0.00%     81.94% # Class of committed instruction (Count)
system.cpu.commit.committedInstType_0::SimdShaSigma3            0      0.00%     81.94% # Class of committed instruction (Count)
system.cpu.commit.committedInstType_0::SimdPredAlu            0      0.00%     81.94% # Class of committed instruction (Count)
system.cpu.commit.committedInstType_0::MemRead      6758208      9.79%     91.73% # Class of committed instruction (Count)
system.cpu.commit.committedInstType_0::MemWrite      4632678      6.71%     98.44% # Class of committed instruction (Count)
system.cpu.commit.committedInstType_0::FloatMemRead       594885      0.86%     99.31% # Class of committed instruction (Count)
system.cpu.commit.committedInstType_0::FloatMemWrite       479747      0.69%    100.00% # Class of committed instruction (Count)
system.cpu.commit.committedInstType_0::IprAccess            0      0.00%    100.00% # Class of committed instruction (Count)
system.cpu.commit.committedInstType_0::InstPrefetch            0      0.00%    100.00% # Class of committed instruction (Count)
system.cpu.commit.committedInstType_0::total     69036779                       # Class of committed instruction (Count)
system.cpu.commit.commitEligibleSamples       4628480                       # number cycles where commit BW limit reached (Cycle)
system.cpu.dcache.demandHits::cpu.data       11380325                       # number of demand (read+write) hits (Count)
system.cpu.dcache.demandHits::total          11380325                       # number of demand (read+write) hits (Count)
system.cpu.dcache.overallHits::cpu.data      11380325                       # number of overall hits (Count)
system.cpu.dcache.overallHits::total         11380325                       # number of overall hits (Count)
system.cpu.dcache.demandMisses::cpu.data       106448                       # number of demand (read+write) misses (Count)
system.cpu.dcache.demandMisses::total          106448                       # number of demand (read+write) misses (Count)
system.cpu.dcache.overallMisses::cpu.data       106448                       # number of overall misses (Count)
system.cpu.dcache.overallMisses::total         106448                       # number of overall misses (Count)
system.cpu.dcache.demandMissLatency::cpu.data   5796108996                       # number of demand (read+write) miss ticks (Tick)
system.cpu.dcache.demandMissLatency::total   5796108996                       # number of demand (read+write) miss ticks (Tick)
system.cpu.dcache.overallMissLatency::cpu.data   5796108996                       # number of overall miss ticks (Tick)
system.cpu.dcache.overallMissLatency::total   5796108996                       # number of overall miss ticks (Tick)
system.cpu.dcache.demandAccesses::cpu.data     11486773                       # number of demand (read+write) accesses (Count)
system.cpu.dcache.demandAccesses::total      11486773                       # number of demand (read+write) accesses (Count)
system.cpu.dcache.overallAccesses::cpu.data     11486773                       # number of overall (read+write) accesses (Count)
system.cpu.dcache.overallAccesses::total     11486773                       # number of overall (read+write) accesses (Count)
system.cpu.dcache.demandMissRate::cpu.data     0.009267                       # miss rate for demand accesses (Ratio)
system.cpu.dcache.demandMissRate::total      0.009267                       # miss rate for demand accesses (Ratio)
system.cpu.dcache.overallMissRate::cpu.data     0.009267                       # miss rate for overall accesses (Ratio)
system.cpu.dcache.overallMissRate::total     0.009267                       # miss rate for overall accesses (Ratio)
system.cpu.dcache.demandAvgMissLatency::cpu.data 54450.144634                       # average overall miss latency ((Cycle/Count))
system.cpu.dcache.demandAvgMissLatency::total 54450.144634                       # average overall miss latency ((Cycle/Count))
system.cpu.dcache.overallAvgMissLatency::cpu.data 54450.144634                       # average overall miss latency ((Cycle/Count))
system.cpu.dcache.overallAvgMissLatency::total 54450.144634                       # average overall miss latency ((Cycle/Count))
system.cpu.dcache.blockedCycles::no_mshrs       101434                       # number of cycles access was blocked (Cycle)
system.cpu.dcache.blockedCycles::no_targets            0                       # number of cycles access was blocked (Cycle)
system.cpu.dcache.blockedCauses::no_mshrs         1970                       # number of times access was blocked (Count)
system.cpu.dcache.blockedCauses::no_targets            0                       # number of times access was blocked (Count)
system.cpu.dcache.avgBlocked::no_mshrs      51.489340                       # average number of cycles each access was blocked ((Cycle/Count))
system.cpu.dcache.avgBlocked::no_targets          nan                       # average number of cycles each access was blocked ((Cycle/Count))
system.cpu.dcache.writebacks::writebacks        20713                       # number of writebacks (Count)
system.cpu.dcache.writebacks::total             20713                       # number of writebacks (Count)
system.cpu.dcache.demandMshrHits::cpu.data        52540                       # number of demand (read+write) MSHR hits (Count)
system.cpu.dcache.demandMshrHits::total         52540                       # number of demand (read+write) MSHR hits (Count)
system.cpu.dcache.overallMshrHits::cpu.data        52540                       # number of overall MSHR hits (Count)
system.cpu.dcache.overallMshrHits::total        52540                       # number of overall MSHR hits (Count)
system.cpu.dcache.demandMshrMisses::cpu.data        53908                       # number of demand (read+write) MSHR misses (Count)
system.cpu.dcache.demandMshrMisses::total        53908                       # number of demand (read+write) MSHR misses (Count)
system.cpu.dcache.overallMshrMisses::cpu.data        53908                       # number of overall MSHR misses (Count)
system.cpu.dcache.overallMshrMisses::total        53908                       # number of overall MSHR misses (Count)
system.cpu.dcache.demandMshrMissLatency::cpu.data   2880316497                       # number of demand (read+write) MSHR miss ticks (Tick)
system.cpu.dcache.demandMshrMissLatency::total   2880316497                       # number of demand (read+write) MSHR miss ticks (Tick)
system.cpu.dcache.overallMshrMissLatency::cpu.data   2880316497                       # number of overall MSHR miss ticks (Tick)
system.cpu.dcache.overallMshrMissLatency::total   2880316497                       # number of overall MSHR miss ticks (Tick)
system.cpu.dcache.demandMshrMissRate::cpu.data     0.004693                       # mshr miss ratio for demand accesses (Ratio)
system.cpu.dcache.demandMshrMissRate::total     0.004693                       # mshr miss ratio for demand accesses (Ratio)
system.cpu.dcache.overallMshrMissRate::cpu.data     0.004693                       # mshr miss ratio for overall accesses (Ratio)
system.cpu.dcache.overallMshrMissRate::total     0.004693                       # mshr miss ratio for overall accesses (Ratio)
system.cpu.dcache.demandAvgMshrMissLatency::cpu.data 53430.223659                       # average overall mshr miss latency ((Cycle/Count))
system.cpu.dcache.demandAvgMshrMissLatency::total 53430.223659                       # average overall mshr miss latency ((Cycle/Count))
system.cpu.dcache.overallAvgMshrMissLatency::cpu.data 53430.223659                       # average overall mshr miss latency ((Cycle/Count))
system.cpu.dcache.overallAvgMshrMissLatency::total 53430.223659                       # average overall mshr miss latency ((Cycle/Count))
system.cpu.dcache.replacements                  53396                       # number of replacements (Count)
system.cpu.dcache.ReadReq.hits::cpu.data      6279555                       # number of ReadReq hits (Count)
system.cpu.dcache.ReadReq.hits::total         6279555                       # number of ReadReq hits (Count)
system.cpu.dcache.ReadReq.misses::cpu.data        94792                       # number of ReadReq misses (Count)
system.cpu.dcache.ReadReq.misses::total         94792                       # number of ReadReq misses (Count)
system.cpu.dcache.ReadReq.missLatency::cpu.data   5409533000                       # number of ReadReq miss ticks (Tick)
system.cpu.dcache.ReadReq.missLatency::total   5409533000                       # number of ReadReq miss ticks (Tick)
system.cpu.dcache.ReadReq.accesses::cpu.data      6374347                       # number of ReadReq accesses(hits+misses) (Count)
system.cpu.dcache.ReadReq.accesses::total      6374347                       # number of ReadReq accesses(hits+misses) (Count)
system.cpu.dcache.ReadReq.missRate::cpu.data     0.014871                       # miss rate for ReadReq accesses (Ratio)
system.cpu.dcache.ReadReq.missRate::total     0.014871                       # miss rate for ReadReq accesses (Ratio)
system.cpu.dcache.ReadReq.avgMissLatency::cpu.data 57067.400203                       # average ReadReq miss latency ((Tick/Count))
system.cpu.dcache.ReadReq.avgMissLatency::total 57067.400203                       # average ReadReq miss latency ((Tick/Count))
system.cpu.dcache.ReadReq.mshrHits::cpu.data        52536                       # number of ReadReq MSHR hits (Count)
system.cpu.dcache.ReadReq.mshrHits::total        52536                       # number of ReadReq MSHR hits (Count)
system.cpu.dcache.ReadReq.mshrMisses::cpu.data        42256                       # number of ReadReq MSHR misses (Count)
system.cpu.dcache.ReadReq.mshrMisses::total        42256                       # number of ReadReq MSHR misses (Count)
system.cpu.dcache.ReadReq.mshrMissLatency::cpu.data   2505498500                       # number of ReadReq MSHR miss ticks (Tick)
system.cpu.dcache.ReadReq.mshrMissLatency::total   2505498500                       # number of ReadReq MSHR miss ticks (Tick)
system.cpu.dcache.ReadReq.mshrMissRate::cpu.data     0.006629                       # mshr miss rate for ReadReq accesses (Ratio)
system.cpu.dcache.ReadReq.mshrMissRate::total     0.006629                       # mshr miss rate for ReadReq accesses (Ratio)
system.cpu.dcache.ReadReq.avgMshrMissLatency::cpu.data 59293.319292                       # average ReadReq mshr miss latency ((Tick/Count))
system.cpu.dcache.ReadReq.avgMshrMissLatency::total 59293.319292                       # average ReadReq mshr miss latency ((Tick/Count))
system.cpu.dcache.WriteReq.hits::cpu.data      5100770                       # number of WriteReq hits (Count)
system.cpu.dcache.WriteReq.hits::total        5100770                       # number of WriteReq hits (Count)
system.cpu.dcache.WriteReq.misses::cpu.data        11656                       # number of WriteReq misses (Count)
system.cpu.dcache.WriteReq.misses::total        11656                       # number of WriteReq misses (Count)
system.cpu.dcache.WriteReq.missLatency::cpu.data    386575996                       # number of WriteReq miss ticks (Tick)
system.cpu.dcache.WriteReq.missLatency::total    386575996                       # number of WriteReq miss ticks (Tick)
system.cpu.dcache.WriteReq.accesses::cpu.data      5112426                       # number of WriteReq accesses(hits+misses) (Count)
system.cpu.dcache.WriteReq.accesses::total      5112426                       # number of WriteReq accesses(hits+misses) (Count)
system.cpu.dcache.WriteReq.missRate::cpu.data     0.002280                       # miss rate for WriteReq accesses (Ratio)
system.cpu.dcache.WriteReq.missRate::total     0.002280                       # miss rate for WriteReq accesses (Ratio)
system.cpu.dcache.WriteReq.avgMissLatency::cpu.data 33165.408030                       # average WriteReq miss latency ((Tick/Count))
system.cpu.dcache.WriteReq.avgMissLatency::total 33165.408030                       # average WriteReq miss latency ((Tick/Count))
system.cpu.dcache.WriteReq.mshrHits::cpu.data            4                       # number of WriteReq MSHR hits (Count)
system.cpu.dcache.WriteReq.mshrHits::total            4                       # number of WriteReq MSHR hits (Count)
system.cpu.dcache.WriteReq.mshrMisses::cpu.data        11652                       # number of WriteReq MSHR misses (Count)
system.cpu.dcache.WriteReq.mshrMisses::total        11652                       # number of WriteReq MSHR misses (Count)
system.cpu.dcache.WriteReq.mshrMissLatency::cpu.data    374817997                       # number of WriteReq MSHR miss ticks (Tick)
system.cpu.dcache.WriteReq.mshrMissLatency::total    374817997                       # number of WriteReq MSHR miss ticks (Tick)
system.cpu.dcache.WriteReq.mshrMissRate::cpu.data     0.002279                       # mshr miss rate for WriteReq accesses (Ratio)
system.cpu.dcache.WriteReq.mshrMissRate::total     0.002279                       # mshr miss rate for WriteReq accesses (Ratio)
system.cpu.dcache.WriteReq.avgMshrMissLatency::cpu.data 32167.696275                       # average WriteReq mshr miss latency ((Tick/Count))
system.cpu.dcache.WriteReq.avgMshrMissLatency::total 32167.696275                       # average WriteReq mshr miss latency ((Tick/Count))
system.cpu.dcache.power_state.pwrStateResidencyTicks::UNDEFINED  11375428000                       # Cumulative time (in ticks) in various power states (Tick)
system.cpu.dcache.tags.tagsInUse           510.729414                       # Average ticks per tags in use ((Tick/Count))
system.cpu.dcache.tags.totalRefs             11434233                       # Total number of references to valid blocks. (Count)
system.cpu.dcache.tags.sampledRefs              53908                       # Sample count of references to valid blocks. (Count)
system.cpu.dcache.tags.avgRefs             212.106422                       # Average number of references to valid blocks. ((Count/Count))
system.cpu.dcache.tags.warmupTick              145000                       # The tick when the warmup percentage was hit. (Tick)
system.cpu.dcache.tags.occupancies::cpu.data   510.729414                       # Average occupied blocks per tick, per requestor ((Count/Tick))
system.cpu.dcache.tags.avgOccs::cpu.data     0.997518                       # Average percentage of cache occupancy ((Ratio/Tick))
system.cpu.dcache.tags.avgOccs::total        0.997518                       # Average percentage of cache occupancy ((Ratio/Tick))
system.cpu.dcache.tags.occupanciesTaskId::1024          512                       # Occupied blocks per task id (Count)
system.cpu.dcache.tags.ageTaskId_1024::0          144                       # Occupied blocks per task id, per block age (Count)
system.cpu.dcache.tags.ageTaskId_1024::1          368                       # Occupied blocks per task id, per block age (Count)
system.cpu.dcache.tags.ratioOccsTaskId::1024            1                       # Ratio of occupied blocks and all blocks, per task id (Ratio)
system.cpu.dcache.tags.tagAccesses           23027454                       # Number of tag accesses (Count)
system.cpu.dcache.tags.dataAccesses          23027454                       # Number of data accesses (Count)
system.cpu.dcache.tags.power_state.pwrStateResidencyTicks::UNDEFINED  11375428000                       # Cumulative time (in ticks) in various power states (Tick)
system.cpu.decode.idleCycles                  5068241                       # Number of cycles decode is idle (Cycle)
system.cpu.decode.blockedCycles               5680819                       # Number of cycles decode is blocked (Cycle)
system.cpu.decode.runCycles                  10262679                       # Number of cycles decode is running (Cycle)
system.cpu.decode.unblockCycles               1266436                       # Number of cycles decode is unblocking (Cycle)
system.cpu.decode.squashCycles                 142705                       # Number of cycles decode is squashing (Cycle)
system.cpu.decode.branchResolved              4862885                       # Number of times decode resolved a branch (Count)
system.cpu.decode.branchMispred                  8649                       # Number of times decode detected a branch misprediction (Count)
system.cpu.decode.decodedInsts               74736555                       # Number of instructions handled by decode (Count)
system.cpu.decode.squashedInsts                 39193                       # Number of squashed instructions handled by decode (Count)
system.cpu.dtb_walker_cache.blockedCycles::no_mshrs            0                       # number of cycles access was blocked (Cycle)
system.cpu.dtb_walker_cache.blockedCycles::no_targets            0                       # number of cycles access was blocked (Cycle)
system.cpu.dtb_walker_cache.blockedCauses::no_mshrs            0                       # number of times access was blocked (Count)
system.cpu.dtb_walker_cache.blockedCauses::no_targets            0                       # number of times access was blocked (Count)
system.cpu.dtb_walker_cache.avgBlocked::no_mshrs          nan                       # average number of cycles each access was blocked ((Cycle/Count))
system.cpu.dtb_walker_cache.avgBlocked::no_targets          nan                       # average number of cycles each access was blocked ((Cycle/Count))
system.cpu.dtb_walker_cache.replacements            0                       # number of replacements (Count)
system.cpu.dtb_walker_cache.power_state.pwrStateResidencyTicks::UNDEFINED  11375428000                       # Cumulative time (in ticks) in various power states (Tick)
system.cpu.dtb_walker_cache.tags.tagsInUse            0                       # Average ticks per tags in use ((Tick/Count))
system.cpu.dtb_walker_cache.tags.totalRefs            0                       # Total number of references to valid blocks. (Count)
system.cpu.dtb_walker_cache.tags.sampledRefs            0                       # Sample count of references to valid blocks. (Count)
system.cpu.dtb_walker_cache.tags.avgRefs          nan                       # Average number of references to valid blocks. ((Count/Count))
system.cpu.dtb_walker_cache.tags.warmupTick            0                       # The tick when the warmup percentage was hit. (Tick)
system.cpu.dtb_walker_cache.tags.tagAccesses            0                       # Number of tag accesses (Count)
system.cpu.dtb_walker_cache.tags.dataAccesses            0                       # Number of data accesses (Count)
system.cpu.dtb_walker_cache.tags.power_state.pwrStateResidencyTicks::UNDEFINED  11375428000                       # Cumulative time (in ticks) in various power states (Tick)
system.cpu.fetch.icacheStallCycles            5591503                       # Number of cycles fetch is stalled on an Icache miss (Cycle)
system.cpu.fetch.insts                       37914532                       # Number of instructions fetch has processed (Count)
system.cpu.fetch.branches                     9283706                       # Number of branches that fetch encountered (Count)
system.cpu.fetch.predictedBranches            5789156                       # Number of branches that fetch has predicted taken (Count)
system.cpu.fetch.cycles                      16677200                       # Number of cycles fetch has run and was not squashing or blocked (Cycle)
system.cpu.fetch.squashCycles                  302688                       # Number of cycles fetch has spent squashing (Cycle)
system.cpu.fetch.miscStallCycles                  115                       # Number of cycles fetch has spent waiting on interrupts, or bad addresses, or out of MSHRs (Cycle)
system.cpu.fetch.pendingTrapStallCycles           680                       # Number of stall cycles due to pending traps (Cycle)
system.cpu.fetch.pendingQuiesceStallCycles            1                       # Number of stall cycles due to pending quiesce instructions (Cycle)
system.cpu.fetch.icacheWaitRetryStallCycles           37                       # Number of stall cycles due to full MSHR (Cycle)
system.cpu.fetch.cacheLines                   4781264                       # Number of cache lines fetched (Count)
system.cpu.fetch.icacheSquashes                 35617                       # Number of outstanding Icache misses that were squashed (Count)
system.cpu.fetch.nisnDist::samples           22420880                       # Number of instructions fetched each cycle (Total) (Count)
system.cpu.fetch.nisnDist::mean              3.416125                       # Number of instructions fetched each cycle (Total) (Count)
system.cpu.fetch.nisnDist::stdev             3.553098                       # Number of instructions fetched each cycle (Total) (Count)
system.cpu.fetch.nisnDist::underflows               0      0.00%      0.00% # Number of instructions fetched each cycle (Total) (Count)
system.cpu.fetch.nisnDist::0                 10025981     44.72%     44.72% # Number of instructions fetched each cycle (Total) (Count)
system.cpu.fetch.nisnDist::1                   853565      3.81%     48.52% # Number of instructions fetched each cycle (Total) (Count)
system.cpu.fetch.nisnDist::2                   700921      3.13%     51.65% # Number of instructions fetched each cycle (Total) (Count)
system.cpu.fetch.nisnDist::3                   566388      2.53%     54.18% # Number of instructions fetched each cycle (Total) (Count)
system.cpu.fetch.nisnDist::4                  1221082      5.45%     59.62% # Number of instructions fetched each cycle (Total) (Count)
system.cpu.fetch.nisnDist::5                  1009623      4.50%     64.13% # Number of instructions fetched each cycle (Total) (Count)
system.cpu.fetch.nisnDist::6                   506428      2.26%     66.38% # Number of instructions fetched each cycle (Total) (Count)
system.cpu.fetch.nisnDist::7                   628195      2.80%     69.19% # Number of instructions fetched each cycle (Total) (Count)
system.cpu.fetch.nisnDist::8                  6908697     30.81%    100.00% # Number of instructions fetched each cycle (Total) (Count)
system.cpu.fetch.nisnDist::overflows                0      0.00%    100.00% # Number of instructions fetched each cycle (Total) (Count)
system.cpu.fetch.nisnDist::min_value                0                       # Number of instructions fetched each cycle (Total) (Count)
system.cpu.fetch.nisnDist::max_value                8                       # Number of instructions fetched each cycle (Total) (Count)
system.cpu.fetch.nisnDist::total             22420880                       # Number of instructions fetched each cycle (Total) (Count)
system.cpu.fetch.branchRate                  0.408060                       # Number of branch fetches per cycle (Ratio)
system.cpu.fetch.rate                        1.666510                       # Number of inst fetches per cycle ((Count/Cycle))
system.cpu.icache.demandHits::cpu.inst        4749888                       # number of demand (read+write) hits (Count)
system.cpu.icache.demandHits::total           4749888                       # number of demand (read+write) hits (Count)
system.cpu.icache.overallHits::cpu.inst       4749888                       # number of overall hits (Count)
system.cpu.icache.overallHits::total          4749888                       # number of overall hits (Count)
system.cpu.icache.demandMisses::cpu.inst        31376                       # number of demand (read+write) misses (Count)
system.cpu.icache.demandMisses::total           31376                       # number of demand (read+write) misses (Count)
system.cpu.icache.overallMisses::cpu.inst        31376                       # number of overall misses (Count)
system.cpu.icache.overallMisses::total          31376                       # number of overall misses (Count)
system.cpu.icache.demandMissLatency::cpu.inst    696269499                       # number of demand (read+write) miss ticks (Tick)
system.cpu.icache.demandMissLatency::total    696269499                       # number of demand (read+write) miss ticks (Tick)
system.cpu.icache.overallMissLatency::cpu.inst    696269499                       # number of overall miss ticks (Tick)
system.cpu.icache.overallMissLatency::total    696269499                       # number of overall miss ticks (Tick)
system.cpu.icache.demandAccesses::cpu.inst      4781264                       # number of demand (read+write) accesses (Count)
system.cpu.icache.demandAccesses::total       4781264                       # number of demand (read+write) accesses (Count)
system.cpu.icache.overallAccesses::cpu.inst      4781264                       # number of overall (read+write) accesses (Count)
system.cpu.icache.overallAccesses::total      4781264                       # number of overall (read+write) accesses (Count)
system.cpu.icache.demandMissRate::cpu.inst     0.006562                       # miss rate for demand accesses (Ratio)
system.cpu.icache.demandMissRate::total      0.006562                       # miss rate for demand accesses (Ratio)
system.cpu.icache.overallMissRate::cpu.inst     0.006562                       # miss rate for overall accesses (Ratio)
system.cpu.icache.overallMissRate::total     0.006562                       # miss rate for overall accesses (Ratio)
system.cpu.icache.demandAvgMissLatency::cpu.inst 22191.149254                       # average overall miss latency ((Cycle/Count))
system.cpu.icache.demandAvgMissLatency::total 22191.149254                       # average overall miss latency ((Cycle/Count))
system.cpu.icache.overallAvgMissLatency::cpu.inst 22191.149254                       # average overall miss latency ((Cycle/Count))
system.cpu.icache.overallAvgMissLatency::total 22191.149254                       # average overall miss latency ((Cycle/Count))
system.cpu.icache.blockedCycles::no_mshrs          307                       # number of cycles access was blocked (Cycle)
system.cpu.icache.blockedCycles::no_targets            0                       # number of cycles access was blocked (Cycle)
system.cpu.icache.blockedCauses::no_mshrs            5                       # number of times access was blocked (Count)
system.cpu.icache.blockedCauses::no_targets            0                       # number of times access was blocked (Count)
system.cpu.icache.avgBlocked::no_mshrs      61.400000                       # average number of cycles each access was blocked ((Cycle/Count))
system.cpu.icache.avgBlocked::no_targets          nan                       # average number of cycles each access was blocked ((Cycle/Count))
system.cpu.icache.writebacks::writebacks        25190                       # number of writebacks (Count)
system.cpu.icache.writebacks::total             25190                       # number of writebacks (Count)
system.cpu.icache.demandMshrHits::cpu.inst         5696                       # number of demand (read+write) MSHR hits (Count)
system.cpu.icache.demandMshrHits::total          5696                       # number of demand (read+write) MSHR hits (Count)
system.cpu.icache.overallMshrHits::cpu.inst         5696                       # number of overall MSHR hits (Count)
system.cpu.icache.overallMshrHits::total         5696                       # number of overall MSHR hits (Count)
system.cpu.icache.demandMshrMisses::cpu.inst        25680                       # number of demand (read+write) MSHR misses (Count)
system.cpu.icache.demandMshrMisses::total        25680                       # number of demand (read+write) MSHR misses (Count)
system.cpu.icache.overallMshrMisses::cpu.inst        25680                       # number of overall MSHR misses (Count)
system.cpu.icache.overallMshrMisses::total        25680                       # number of overall MSHR misses (Count)
system.cpu.icache.demandMshrMissLatency::cpu.inst    595453999                       # number of demand (read+write) MSHR miss ticks (Tick)
system.cpu.icache.demandMshrMissLatency::total    595453999                       # number of demand (read+write) MSHR miss ticks (Tick)
system.cpu.icache.overallMshrMissLatency::cpu.inst    595453999                       # number of overall MSHR miss ticks (Tick)
system.cpu.icache.overallMshrMissLatency::total    595453999                       # number of overall MSHR miss ticks (Tick)
system.cpu.icache.demandMshrMissRate::cpu.inst     0.005371                       # mshr miss ratio for demand accesses (Ratio)
system.cpu.icache.demandMshrMissRate::total     0.005371                       # mshr miss ratio for demand accesses (Ratio)
system.cpu.icache.overallMshrMissRate::cpu.inst     0.005371                       # mshr miss ratio for overall accesses (Ratio)
system.cpu.icache.overallMshrMissRate::total     0.005371                       # mshr miss ratio for overall accesses (Ratio)
system.cpu.icache.demandAvgMshrMissLatency::cpu.inst 23187.461020                       # average overall mshr miss latency ((Cycle/Count))
system.cpu.icache.demandAvgMshrMissLatency::total 23187.461020                       # average overall mshr miss latency ((Cycle/Count))
system.cpu.icache.overallAvgMshrMissLatency::cpu.inst 23187.461020                       # average overall mshr miss latency ((Cycle/Count))
system.cpu.icache.overallAvgMshrMissLatency::total 23187.461020                       # average overall mshr miss latency ((Cycle/Count))
system.cpu.icache.replacements                  25190                       # number of replacements (Count)
system.cpu.icache.ReadReq.hits::cpu.inst      4749888                       # number of ReadReq hits (Count)
system.cpu.icache.ReadReq.hits::total         4749888                       # number of ReadReq hits (Count)
system.cpu.icache.ReadReq.misses::cpu.inst        31376                       # number of ReadReq misses (Count)
system.cpu.icache.ReadReq.misses::total         31376                       # number of ReadReq misses (Count)
system.cpu.icache.ReadReq.missLatency::cpu.inst    696269499                       # number of ReadReq miss ticks (Tick)
system.cpu.icache.ReadReq.missLatency::total    696269499                       # number of ReadReq miss ticks (Tick)
system.cpu.icache.ReadReq.accesses::cpu.inst      4781264                       # number of ReadReq accesses(hits+misses) (Count)
system.cpu.icache.ReadReq.accesses::total      4781264                       # number of ReadReq accesses(hits+misses) (Count)
system.cpu.icache.ReadReq.missRate::cpu.inst     0.006562                       # miss rate for ReadReq accesses (Ratio)
system.cpu.icache.ReadReq.missRate::total     0.006562                       # miss rate for ReadReq accesses (Ratio)
system.cpu.icache.ReadReq.avgMissLatency::cpu.inst 22191.149254                       # average ReadReq miss latency ((Tick/Count))
system.cpu.icache.ReadReq.avgMissLatency::total 22191.149254                       # average ReadReq miss latency ((Tick/Count))
system.cpu.icache.ReadReq.mshrHits::cpu.inst         5696                       # number of ReadReq MSHR hits (Count)
system.cpu.icache.ReadReq.mshrHits::total         5696                       # number of ReadReq MSHR hits (Count)
system.cpu.icache.ReadReq.mshrMisses::cpu.inst        25680                       # number of ReadReq MSHR misses (Count)
system.cpu.icache.ReadReq.mshrMisses::total        25680                       # number of ReadReq MSHR misses (Count)
system.cpu.icache.ReadReq.mshrMissLatency::cpu.inst    595453999                       # number of ReadReq MSHR miss ticks (Tick)
system.cpu.icache.ReadReq.mshrMissLatency::total    595453999                       # number of ReadReq MSHR miss ticks (Tick)
system.cpu.icache.ReadReq.mshrMissRate::cpu.inst     0.005371                       # mshr miss rate for ReadReq accesses (Ratio)
system.cpu.icache.ReadReq.mshrMissRate::total     0.005371                       # mshr miss rate for ReadReq accesses (Ratio)
system.cpu.icache.ReadReq.avgMshrMissLatency::cpu.inst 23187.461020                       # average ReadReq mshr miss latency ((Tick/Count))
system.cpu.icache.ReadReq.avgMshrMissLatency::total 23187.461020                       # average ReadReq mshr miss latency ((Tick/Count))
system.cpu.icache.power_state.pwrStateResidencyTicks::UNDEFINED  11375428000                       # Cumulative time (in ticks) in various power states (Tick)
system.cpu.icache.tags.tagsInUse           450.072364                       # Average ticks per tags in use ((Tick/Count))
system.cpu.icache.tags.totalRefs              4775567                       # Total number of references to valid blocks. (Count)
system.cpu.icache.tags.sampledRefs              25679                       # Sample count of references to valid blocks. (Count)
system.cpu.icache.tags.avgRefs             185.971689                       # Average number of references to valid blocks. ((Count/Count))
system.cpu.icache.tags.warmupTick               77000                       # The tick when the warmup percentage was hit. (Tick)
system.cpu.icache.tags.occupancies::cpu.inst   450.072364                       # Average occupied blocks per tick, per requestor ((Count/Tick))
system.cpu.icache.tags.avgOccs::cpu.inst     0.879048                       # Average percentage of cache occupancy ((Ratio/Tick))
system.cpu.icache.tags.avgOccs::total        0.879048                       # Average percentage of cache occupancy ((Ratio/Tick))
system.cpu.icache.tags.occupanciesTaskId::1024          489                       # Occupied blocks per task id (Count)
system.cpu.icache.tags.ageTaskId_1024::0          122                       # Occupied blocks per task id, per block age (Count)
system.cpu.icache.tags.ageTaskId_1024::1           19                       # Occupied blocks per task id, per block age (Count)
system.cpu.icache.tags.ageTaskId_1024::3          185                       # Occupied blocks per task id, per block age (Count)
system.cpu.icache.tags.ageTaskId_1024::4          163                       # Occupied blocks per task id, per block age (Count)
system.cpu.icache.tags.ratioOccsTaskId::1024     0.955078                       # Ratio of occupied blocks and all blocks, per task id (Ratio)
system.cpu.icache.tags.tagAccesses            9588207                       # Number of tag accesses (Count)
system.cpu.icache.tags.dataAccesses           9588207                       # Number of data accesses (Count)
system.cpu.icache.tags.power_state.pwrStateResidencyTicks::UNDEFINED  11375428000                       # Cumulative time (in ticks) in various power states (Tick)
system.cpu.iew.idleCycles                           0                       # Number of cycles IEW is idle (Cycle)
system.cpu.iew.squashCycles                    142705                       # Number of cycles IEW is squashing (Cycle)
system.cpu.iew.blockCycles                    1736775                       # Number of cycles IEW is blocking (Cycle)
system.cpu.iew.unblockCycles                   181240                       # Number of cycles IEW is unblocking (Cycle)
system.cpu.iew.dispatchedInsts               73144190                       # Number of instructions dispatched to IQ (Count)
system.cpu.iew.dispSquashedInsts                41698                       # Number of squashed instructions skipped by dispatch (Count)
system.cpu.iew.dispLoadInsts                  7672614                       # Number of dispatched load instructions (Count)
system.cpu.iew.dispStoreInsts                 5306222                       # Number of dispatched store instructions (Count)
system.cpu.iew.dispNonSpecInsts                    17                       # Number of dispatched non-speculative instructions (Count)
system.cpu.iew.iqFullEvents                     40546                       # Number of times the IQ has become full, causing a stall (Count)
system.cpu.iew.lsqFullEvents                   129675                       # Number of times the LSQ has become full, causing a stall (Count)
system.cpu.iew.memOrderViolationEvents            481                       # Number of memory order violations (Count)
system.cpu.iew.predictedTakenIncorrect          69444                       # Number of branches that were predicted taken incorrectly (Count)
system.cpu.iew.predictedNotTakenIncorrect        98428                       # Number of branches that were predicted not taken incorrectly (Count)
system.cpu.iew.branchMispredicts               167872                       # Number of branch mispredicts detected at execute (Count)
system.cpu.iew.instsToCommit                 71364273                       # Cumulative count of insts sent to commit (Count)
system.cpu.iew.writebackCount                71305244                       # Cumulative count of insts written-back (Count)
system.cpu.iew.producerInst                  49816538                       # Number of instructions producing a value (Count)
system.cpu.iew.consumerInst                  90095131                       # Number of instructions consuming a value (Count)
system.cpu.iew.wbRate                        3.134178                       # Insts written-back per cycle ((Count/Cycle))
system.cpu.iew.wbFanout                      0.552933                       # Average fanout of values written-back ((Count/Count))
system.cpu.interrupts.clk_domain.clock           8000                       # Clock period in ticks (Tick)
system.cpu.itb_walker_cache.blockedCycles::no_mshrs            0                       # number of cycles access was blocked (Cycle)
system.cpu.itb_walker_cache.blockedCycles::no_targets            0                       # number of cycles access was blocked (Cycle)
system.cpu.itb_walker_cache.blockedCauses::no_mshrs            0                       # number of times access was blocked (Count)
system.cpu.itb_walker_cache.blockedCauses::no_targets            0                       # number of times access was blocked (Count)
system.cpu.itb_walker_cache.avgBlocked::no_mshrs          nan                       # average number of cycles each access was blocked ((Cycle/Count))
system.cpu.itb_walker_cache.avgBlocked::no_targets          nan                       # average number of cycles each access was blocked ((Cycle/Count))
system.cpu.itb_walker_cache.replacements            0                       # number of replacements (Count)
system.cpu.itb_walker_cache.power_state.pwrStateResidencyTicks::UNDEFINED  11375428000                       # Cumulative time (in ticks) in various power states (Tick)
system.cpu.itb_walker_cache.tags.tagsInUse            0                       # Average ticks per tags in use ((Tick/Count))
system.cpu.itb_walker_cache.tags.totalRefs            0                       # Total number of references to valid blocks. (Count)
system.cpu.itb_walker_cache.tags.sampledRefs            0                       # Sample count of references to valid blocks. (Count)
system.cpu.itb_walker_cache.tags.avgRefs          nan                       # Average number of references to valid blocks. ((Count/Count))
system.cpu.itb_walker_cache.tags.warmupTick            0                       # The tick when the warmup percentage was hit. (Tick)
system.cpu.itb_walker_cache.tags.tagAccesses            0                       # Number of tag accesses (Count)
system.cpu.itb_walker_cache.tags.dataAccesses            0                       # Number of data accesses (Count)
system.cpu.itb_walker_cache.tags.power_state.pwrStateResidencyTicks::UNDEFINED  11375428000                       # Cumulative time (in ticks) in various power states (Tick)
system.cpu.lsq0.forwLoads                     1240119                       # Number of loads that had data forwarded from stores (Count)
system.cpu.lsq0.squashedLoads                  319521                       # Number of loads squashed (Count)
system.cpu.lsq0.ignoredResponses                   18                       # Number of memory responses ignored because the instruction is squashed (Count)
system.cpu.lsq0.memOrderViolation                 481                       # Number of memory ordering violations (Count)
system.cpu.lsq0.squashedStores                 193797                       # Number of stores squashed (Count)
system.cpu.lsq0.rescheduledLoads                    1                       # Number of loads that were rescheduled (Count)
system.cpu.lsq0.blockedByCache                   1931                       # Number of times an access to memory failed due to the cache being blocked (Count)
system.cpu.lsq0.loadToUse::samples            7353093                       # Distribution of cycle latency between the first time a load is issued and its completion (Unspecified)
system.cpu.lsq0.loadToUse::mean              4.495929                       # Distribution of cycle latency between the first time a load is issued and its completion (Unspecified)
system.cpu.lsq0.loadToUse::stdev            14.883289                       # Distribution of cycle latency between the first time a load is issued and its completion (Unspecified)
system.cpu.lsq0.loadToUse::0-9                7260628     98.74%     98.74% # Distribution of cycle latency between the first time a load is issued and its completion (Unspecified)
system.cpu.lsq0.loadToUse::10-19                 1991      0.03%     98.77% # Distribution of cycle latency between the first time a load is issued and its completion (Unspecified)
system.cpu.lsq0.loadToUse::20-29                 1175      0.02%     98.79% # Distribution of cycle latency between the first time a load is issued and its completion (Unspecified)
system.cpu.lsq0.loadToUse::30-39                 5458      0.07%     98.86% # Distribution of cycle latency between the first time a load is issued and its completion (Unspecified)
system.cpu.lsq0.loadToUse::40-49                  974      0.01%     98.87% # Distribution of cycle latency between the first time a load is issued and its completion (Unspecified)
system.cpu.lsq0.loadToUse::50-59                 1562      0.02%     98.89% # Distribution of cycle latency between the first time a load is issued and its completion (Unspecified)
system.cpu.lsq0.loadToUse::60-69                 2818      0.04%     98.93% # Distribution of cycle latency between the first time a load is issued and its completion (Unspecified)
system.cpu.lsq0.loadToUse::70-79                 1333      0.02%     98.95% # Distribution of cycle latency between the first time a load is issued and its completion (Unspecified)
[...]
system.mem_ctrls.dram.bwWrite::total        116534692                       # Write bandwidth from this memory ((Byte/Second))
system.mem_ctrls.dram.bwTotal::writebacks    116534692                       # Total bandwidth to/from this memory ((Byte/Second))
system.mem_ctrls.dram.bwTotal::cpu.inst     144474212                       # Total bandwidth to/from this memory ((Byte/Second))
system.mem_ctrls.dram.bwTotal::cpu.data     303295138                       # Total bandwidth to/from this memory ((Byte/Second))
system.mem_ctrls.dram.bwTotal::total        564304042                       # Total bandwidth to/from this memory ((Byte/Second))
system.mem_ctrls.dram.readBursts                45638                       # Number of DRAM read bursts (Count)
system.mem_ctrls.dram.writeBursts               12949                       # Number of DRAM write bursts (Count)
system.mem_ctrls.dram.perBankRdBursts::0         1705                       # Per bank write bursts (Count)
system.mem_ctrls.dram.perBankRdBursts::1         1250                       # Per bank write bursts (Count)
system.mem_ctrls.dram.perBankRdBursts::2         5162                       # Per bank write bursts (Count)
system.mem_ctrls.dram.perBankRdBursts::3         1000                       # Per bank write bursts (Count)
system.mem_ctrls.dram.perBankRdBursts::4          960                       # Per bank write bursts (Count)
system.mem_ctrls.dram.perBankRdBursts::5         1484                       # Per bank write bursts (Count)
system.mem_ctrls.dram.perBankRdBursts::6        10314                       # Per bank write bursts (Count)
system.mem_ctrls.dram.perBankRdBursts::7         1847                       # Per bank write bursts (Count)
system.mem_ctrls.dram.perBankRdBursts::8        14399                       # Per bank write bursts (Count)
system.mem_ctrls.dram.perBankRdBursts::9          815                       # Per bank write bursts (Count)
system.mem_ctrls.dram.perBankRdBursts::10          817                       # Per bank write bursts (Count)
system.mem_ctrls.dram.perBankRdBursts::11          506                       # Per bank write bursts (Count)
system.mem_ctrls.dram.perBankRdBursts::12          794                       # Per bank write bursts (Count)
system.mem_ctrls.dram.perBankRdBursts::13         1480                       # Per bank write bursts (Count)
system.mem_ctrls.dram.perBankRdBursts::14         1627                       # Per bank write bursts (Count)
system.mem_ctrls.dram.perBankRdBursts::15         1478                       # Per bank write bursts (Count)
system.mem_ctrls.dram.perBankWrBursts::0          556                       # Per bank write bursts (Count)
system.mem_ctrls.dram.perBankWrBursts::1          566                       # Per bank write bursts (Count)
system.mem_ctrls.dram.perBankWrBursts::2          554                       # Per bank write bursts (Count)
system.mem_ctrls.dram.perBankWrBursts::3          570                       # Per bank write bursts (Count)
system.mem_ctrls.dram.perBankWrBursts::4          551                       # Per bank write bursts (Count)
system.mem_ctrls.dram.perBankWrBursts::5         1305                       # Per bank write bursts (Count)
system.mem_ctrls.dram.perBankWrBursts::6         1786                       # Per bank write bursts (Count)
system.mem_ctrls.dram.perBankWrBursts::7         1664                       # Per bank write bursts (Count)
system.mem_ctrls.dram.perBankWrBursts::8         1815                       # Per bank write bursts (Count)
system.mem_ctrls.dram.perBankWrBursts::9          474                       # Per bank write bursts (Count)
system.mem_ctrls.dram.perBankWrBursts::10          529                       # Per bank write bursts (Count)
system.mem_ctrls.dram.perBankWrBursts::11          308                       # Per bank write bursts (Count)
system.mem_ctrls.dram.perBankWrBursts::12          285                       # Per bank write bursts (Count)
system.mem_ctrls.dram.perBankWrBursts::13          879                       # Per bank write bursts (Count)
system.mem_ctrls.dram.perBankWrBursts::14          530                       # Per bank write bursts (Count)
system.mem_ctrls.dram.perBankWrBursts::15          577                       # Per bank write bursts (Count)
system.mem_ctrls.dram.totQLat               440518500                       # Total ticks spent queuing (Tick)
system.mem_ctrls.dram.totBusLat             228190000                       # Total ticks spent in databus transfers (Tick)
system.mem_ctrls.dram.totMemAccLat         1296231000                       # Total ticks spent from burst creation until serviced by the DRAM (Tick)
system.mem_ctrls.dram.avgQLat                 9652.45                       # Average queueing delay per DRAM burst ((Tick/Count))
system.mem_ctrls.dram.avgBusLat               5000.00                       # Average bus latency per DRAM burst ((Tick/Count))
system.mem_ctrls.dram.avgMemAccLat           28402.45                       # Average memory access latency per DRAM burst ((Tick/Count))
system.mem_ctrls.dram.readRowHits               39075                       # Number of row buffer hits during reads (Count)
system.mem_ctrls.dram.writeRowHits              11606                       # Number of row buffer hits during writes (Count)
system.mem_ctrls.dram.readRowHitRate            85.62                       # Row buffer hit rate for reads (Ratio)
system.mem_ctrls.dram.writeRowHitRate           89.63                       # Row buffer hit rate for writes (Ratio)
system.mem_ctrls.dram.bytesPerActivate::samples         7891                       # Bytes accessed per row activation (Byte)
system.mem_ctrls.dram.bytesPerActivate::mean   474.772779                       # Bytes accessed per row activation (Byte)
system.mem_ctrls.dram.bytesPerActivate::gmean   317.109478                       # Bytes accessed per row activation (Byte)
system.mem_ctrls.dram.bytesPerActivate::stdev   362.733540                       # Bytes accessed per row activation (Byte)
system.mem_ctrls.dram.bytesPerActivate::0-127         1361     17.25%     17.25% # Bytes accessed per row activation (Byte)
system.mem_ctrls.dram.bytesPerActivate::128-255         1472     18.65%     35.90% # Bytes accessed per row activation (Byte)
system.mem_ctrls.dram.bytesPerActivate::256-383          716      9.07%     44.98% # Bytes accessed per row activation (Byte)
system.mem_ctrls.dram.bytesPerActivate::384-511         1264     16.02%     60.99% # Bytes accessed per row activation (Byte)
system.mem_ctrls.dram.bytesPerActivate::512-639          257      3.26%     64.25% # Bytes accessed per row activation (Byte)
system.mem_ctrls.dram.bytesPerActivate::640-767          403      5.11%     69.36% # Bytes accessed per row activation (Byte)
system.mem_ctrls.dram.bytesPerActivate::768-895          541      6.86%     76.21% # Bytes accessed per row activation (Byte)
system.mem_ctrls.dram.bytesPerActivate::896-1023          106      1.34%     77.56% # Bytes accessed per row activation (Byte)
system.mem_ctrls.dram.bytesPerActivate::1024-1151         1771     22.44%    100.00% # Bytes accessed per row activation (Byte)
system.mem_ctrls.dram.bytesPerActivate::total         7891                       # Bytes accessed per row activation (Byte)
system.mem_ctrls.dram.bytesRead               2920832                       # Total bytes read (Byte)
system.mem_ctrls.dram.bytesWritten             828736                       # Total bytes written (Byte)
system.mem_ctrls.dram.avgRdBW              256.766778                       # Average DRAM read bandwidth in MiBytes/s ((Byte/Second))
system.mem_ctrls.dram.avgWrBW               72.853171                       # Average DRAM write bandwidth in MiBytes/s ((Byte/Second))
system.mem_ctrls.dram.peakBW                 12800.00                       # Theoretical peak bandwidth in MiByte/s ((Byte/Second))
system.mem_ctrls.dram.busUtil                    2.58                       # Data bus utilization in percentage (Ratio)
system.mem_ctrls.dram.busUtilRead                2.01                       # Data bus utilization in percentage for reads (Ratio)
system.mem_ctrls.dram.busUtilWrite               0.57                       # Data bus utilization in percentage for writes (Ratio)
system.mem_ctrls.dram.pageHitRate               86.51                       # Row buffer hit rate, read and write combined (Ratio)
system.mem_ctrls.dram.power_state.pwrStateResidencyTicks::UNDEFINED  11375428000                       # Cumulative time (in ticks) in various power states (Tick)
system.mem_ctrls.dram.rank0.actEnergy        30994740                       # Energy for activate commands per rank (pJ) (Joule)
system.mem_ctrls.dram.rank0.preEnergy        16443735                       # Energy for precharge commands per rank (pJ) (Joule)
system.mem_ctrls.dram.rank0.readEnergy      169375080                       # Energy for read commands per rank (pJ) (Joule)
system.mem_ctrls.dram.rank0.writeEnergy      39421440                       # Energy for write commands per rank (pJ) (Joule)
system.mem_ctrls.dram.rank0.refreshEnergy 897374400.000000                       # Energy for refresh commands per rank (pJ) (Joule)
system.mem_ctrls.dram.rank0.actBackEnergy   4355645880                       # Energy for active background per rank (pJ) (Joule)
system.mem_ctrls.dram.rank0.preBackEnergy    700252320                       # Energy for precharge background per rank (pJ) (Joule)
system.mem_ctrls.dram.rank0.actPowerDownEnergy            0                       # Energy for active power-down per rank (pJ) (Joule)
system.mem_ctrls.dram.rank0.prePowerDownEnergy            0                       # Energy for precharge power-down per rank (pJ) (Joule)
system.mem_ctrls.dram.rank0.selfRefreshEnergy            0                       # Energy for self refresh per rank (pJ) (Joule)
system.mem_ctrls.dram.rank0.totalEnergy    6209507595                       # Total energy per rank (pJ) (Joule)
system.mem_ctrls.dram.rank0.averagePower   545.870238                       # Core power per rank (mW) (Watt)
system.mem_ctrls.dram.rank0.totalIdleTime            0                       # Total Idle time Per DRAM Rank (Tick)
system.mem_ctrls.dram.rank0.pwrStateTime::IDLE   1781868250                       # Time in different power states (Tick)
system.mem_ctrls.dram.rank0.pwrStateTime::REF    379600000                       # Time in different power states (Tick)
system.mem_ctrls.dram.rank0.pwrStateTime::SREF            0                       # Time in different power states (Tick)
system.mem_ctrls.dram.rank0.pwrStateTime::PRE_PDN            0                       # Time in different power states (Tick)
system.mem_ctrls.dram.rank0.pwrStateTime::ACT   9213959750                       # Time in different power states (Tick)
system.mem_ctrls.dram.rank0.pwrStateTime::ACT_PDN            0                       # Time in different power states (Tick)
system.mem_ctrls.dram.rank1.actEnergy        25454100                       # Energy for activate commands per rank (pJ) (Joule)
system.mem_ctrls.dram.rank1.preEnergy        13502610                       # Energy for precharge commands per rank (pJ) (Joule)
system.mem_ctrls.dram.rank1.readEnergy      156480240                       # Energy for read commands per rank (pJ) (Joule)
system.mem_ctrls.dram.rank1.writeEnergy      28172340                       # Energy for write commands per rank (pJ) (Joule)
system.mem_ctrls.dram.rank1.refreshEnergy 897374400.000000                       # Energy for refresh commands per rank (pJ) (Joule)
system.mem_ctrls.dram.rank1.actBackEnergy   4302214650                       # Energy for active background per rank (pJ) (Joule)
system.mem_ctrls.dram.rank1.preBackEnergy    745247040                       # Energy for precharge background per rank (pJ) (Joule)
system.mem_ctrls.dram.rank1.actPowerDownEnergy            0                       # Energy for active power-down per rank (pJ) (Joule)
system.mem_ctrls.dram.rank1.prePowerDownEnergy            0                       # Energy for precharge power-down per rank (pJ) (Joule)
system.mem_ctrls.dram.rank1.selfRefreshEnergy            0                       # Energy for self refresh per rank (pJ) (Joule)
system.mem_ctrls.dram.rank1.totalEnergy    6168445380                       # Total energy per rank (pJ) (Joule)
system.mem_ctrls.dram.rank1.averagePower   542.260509                       # Core power per rank (mW) (Watt)
system.mem_ctrls.dram.rank1.totalIdleTime            0                       # Total Idle time Per DRAM Rank (Tick)
system.mem_ctrls.dram.rank1.pwrStateTime::IDLE   1891984250                       # Time in different power states (Tick)
system.mem_ctrls.dram.rank1.pwrStateTime::REF    379600000                       # Time in different power states (Tick)
system.mem_ctrls.dram.rank1.pwrStateTime::SREF            0                       # Time in different power states (Tick)
system.mem_ctrls.dram.rank1.pwrStateTime::PRE_PDN            0                       # Time in different power states (Tick)
system.mem_ctrls.dram.rank1.pwrStateTime::ACT   9103843750                       # Time in different power states (Tick)
system.mem_ctrls.dram.rank1.pwrStateTime::ACT_PDN            0                       # Time in different power states (Tick)
system.mem_ctrls.power_state.pwrStateResidencyTicks::UNDEFINED  11375428000                       # Cumulative time (in ticks) in various power states (Tick)
system.membus.transDist::ReadResp               67935                       # Transaction distribution (Count)
system.membus.transDist::WritebackDirty         20713                       # Transaction distribution (Count)
system.membus.transDist::WritebackClean         25190                       # Transaction distribution (Count)
system.membus.transDist::CleanEvict             32683                       # Transaction distribution (Count)
system.membus.transDist::ReadExReq              11652                       # Transaction distribution (Count)
system.membus.transDist::ReadExResp             11652                       # Transaction distribution (Count)
system.membus.transDist::ReadCleanReq           25680                       # Transaction distribution (Count)
system.membus.transDist::ReadSharedReq          42256                       # Transaction distribution (Count)
system.membus.pktCount_system.cpu.icache.mem_side_port::system.mem_ctrls.port        76549                       # Packet count per connected requestor and responder (Count)
system.membus.pktCount_system.cpu.icache.mem_side_port::total        76549                       # Packet count per connected requestor and responder (Count)
system.membus.pktCount_system.cpu.dcache.mem_side_port::system.mem_ctrls.port       161212                       # Packet count per connected requestor and responder (Count)
system.membus.pktCount_system.cpu.dcache.mem_side_port::total       161212                       # Packet count per connected requestor and responder (Count)
system.membus.pktCount::total                  237761                       # Packet count per connected requestor and responder (Count)
system.membus.pktSize_system.cpu.icache.mem_side_port::system.mem_ctrls.port      3255616                       # Cumulative packet size per connected requestor and responder (Byte)
system.membus.pktSize_system.cpu.icache.mem_side_port::total      3255616                       # Cumulative packet size per connected requestor and responder (Byte)
system.membus.pktSize_system.cpu.dcache.mem_side_port::system.mem_ctrls.port      4775744                       # Cumulative packet size per connected requestor and responder (Byte)
system.membus.pktSize_system.cpu.dcache.mem_side_port::total      4775744                       # Cumulative packet size per connected requestor and responder (Byte)
system.membus.pktSize::total                  8031360                       # Cumulative packet size per connected requestor and responder (Byte)
system.membus.snoops                                0                       # Total snoops (Count)
system.membus.snoopTraffic                          0                       # Total snoop traffic (Byte)
system.membus.snoopFanout::samples              79588                       # Request fanout histogram (Count)
system.membus.snoopFanout::mean              0.000013                       # Request fanout histogram (Count)
system.membus.snoopFanout::stdev             0.003545                       # Request fanout histogram (Count)
system.membus.snoopFanout::underflows               0      0.00%      0.00% # Request fanout histogram (Count)
system.membus.snoopFanout::0                    79587    100.00%    100.00% # Request fanout histogram (Count)
system.membus.snoopFanout::1                        1      0.00%    100.00% # Request fanout histogram (Count)
system.membus.snoopFanout::2                        0      0.00%    100.00% # Request fanout histogram (Count)
system.membus.snoopFanout::3                        0      0.00%    100.00% # Request fanout histogram (Count)
system.membus.snoopFanout::4                        0      0.00%    100.00% # Request fanout histogram (Count)
system.membus.snoopFanout::overflows                0      0.00%    100.00% # Request fanout histogram (Count)
system.membus.snoopFanout::min_value                0                       # Request fanout histogram (Count)
system.membus.snoopFanout::max_value                1                       # Request fanout histogram (Count)
system.membus.snoopFanout::total                79588                       # Request fanout histogram (Count)
system.membus.power_state.pwrStateResidencyTicks::UNDEFINED  11375428000                       # Cumulative time (in ticks) in various power states (Tick)
system.membus.reqLayer2.occupancy           362249000                       # Layer occupancy (ticks) (Tick)
system.membus.reqLayer2.utilization               0.0                       # Layer utilization (Ratio)
system.membus.respLayer1.occupancy          128745000                       # Layer occupancy (ticks) (Tick)
system.membus.respLayer1.utilization              0.0                       # Layer utilization (Ratio)
system.membus.respLayer2.occupancy          282402500                       # Layer occupancy (ticks) (Tick)
system.membus.respLayer2.utilization              0.0                       # Layer utilization (Ratio)
system.membus.snoop_filter.totRequests         158174                       # Total number of requests made to the snoop filter. (Count)
system.membus.snoop_filter.hitSingleRequests        78587                       # Number of requests hitting in the snoop filter with a single holder of the requested data. (Count)
system.membus.snoop_filter.hitMultiRequests            0                       # Number of requests hitting in the snoop filter with multiple (>1) holders of the requested data. (Count)
system.membus.snoop_filter.totSnoops                0                       # Total number of snoops made to the snoop filter. (Count)
system.membus.snoop_filter.hitSingleSnoops            0                       # Number of snoops hitting in the snoop filter with a single holder of the requested data. (Count)
system.membus.snoop_filter.hitMultiSnoops            0                       # Number of snoops hitting in the snoop filter with multiple (>1) holders of the requested data. (Count)
system.voltage_domain.voltage                       1                       # Voltage in Volts (Volt)
system.workload.inst.arm                            0                       # number of arm instructions executed (Count)
system.workload.inst.quiesce                        0                       # number of quiesce instructions executed (Count)

---------- End Simulation Statistics   ----------
